Circuit: * Z:\home\sharpe\Documents\Rowan\Rowan-Projects\Synthesizer\Simulations\PulseWidthDAC.asc

v1: Removing PWL point (5e-08,0)
v1: Removing PWL point (9e-07,0)
v1: Removing PWL point (1.75e-06,0)
v1: Removing PWL point (2.6e-06,0)
v1: Removing PWL point (3.5e-06,0)
v1: Removing PWL point (4.35e-06,0)
v1: Removing PWL point (5.2e-06,0)
v1: Removing PWL point (6.05e-06,0)
v1: Removing PWL point (6.8e-06,3.3)
v1: Removing PWL point (6.95e-06,0)
v1: Removing PWL point (7.65e-06,3.3)
v1: Removing PWL point (7.8e-06,0)
v1: Removing PWL point (8.5e-06,3.3)
v1: Removing PWL point (8.65e-06,0)
v1: Removing PWL point (9.35e-06,3.3)
v1: Removing PWL point (9.5e-06,0)
v1: Removing PWL point (1.02e-05,3.3)
v1: Removing PWL point (1.04e-05,0)
v1: Removing PWL point (1.105e-05,3.3)
v1: Removing PWL point (1.125e-05,0)
v1: Removing PWL point (1.19e-05,3.3)
v1: Removing PWL point (1.21e-05,0)
v1: Removing PWL point (1.275e-05,3.3)
v1: Removing PWL point (1.295e-05,0)
v1: Removing PWL point (1.36e-05,3.3)
v1: Removing PWL point (1.385e-05,0)
v1: Removing PWL point (1.445e-05,3.3)
v1: Removing PWL point (1.47e-05,0)
v1: Removing PWL point (1.53e-05,3.3)
v1: Removing PWL point (1.555e-05,0)
v1: Removing PWL point (1.615e-05,3.3)
v1: Removing PWL point (1.645e-05,0)
v1: Removing PWL point (1.7e-05,3.3)
v1: Removing PWL point (1.73e-05,0)
v1: Removing PWL point (1.785e-05,3.3)
v1: Removing PWL point (1.815e-05,0)
v1: Removing PWL point (1.87e-05,3.3)
v1: Removing PWL point (1.9e-05,0)
v1: Removing PWL point (1.955e-05,3.3)
v1: Removing PWL point (1.99e-05,0)
v1: Removing PWL point (2.04e-05,3.3)
v1: Removing PWL point (2.075e-05,0)
v1: Removing PWL point (2.125e-05,3.3)
v1: Removing PWL point (2.16e-05,0)
v1: Removing PWL point (2.21e-05,3.3)
v1: Removing PWL point (2.245e-05,0)
v1: Removing PWL point (2.295e-05,3.3)
v1: Removing PWL point (2.335e-05,0)
v1: Removing PWL point (2.38e-05,3.3)
v1: Removing PWL point (2.42e-05,0)
v1: Removing PWL point (2.465e-05,3.3)
v1: Removing PWL point (2.505e-05,0)
v1: Removing PWL point (2.55e-05,3.3)
v1: Removing PWL point (2.59e-05,0)
v1: Removing PWL point (2.635e-05,3.3)
v1: Removing PWL point (2.68e-05,0)
v1: Removing PWL point (2.72e-05,3.3)
v1: Removing PWL point (2.765e-05,0)
v1: Removing PWL point (2.805e-05,3.3)
v1: Removing PWL point (2.85e-05,0)
v1: Removing PWL point (2.89e-05,3.3)
v1: Removing PWL point (2.94e-05,0)
v1: Removing PWL point (2.975e-05,3.3)
v1: Removing PWL point (3.025e-05,0)
v1: Removing PWL point (3.06e-05,3.3)
v1: Removing PWL point (3.11e-05,0)
v1: Removing PWL point (3.145e-05,3.3)
v1: Removing PWL point (3.195e-05,0)
v1: Removing PWL point (3.23e-05,3.3)
v1: Removing PWL point (3.285e-05,0)
v1: Removing PWL point (3.315e-05,3.3)
v1: Removing PWL point (3.37e-05,0)
v1: Removing PWL point (3.4e-05,3.3)
v1: Removing PWL point (3.455e-05,0)
v1: Removing PWL point (3.485e-05,3.3)
v1: Removing PWL point (3.54e-05,0)
v1: Removing PWL point (3.57e-05,3.3)
v1: Removing PWL point (3.63e-05,0)
v1: Removing PWL point (3.655e-05,3.3)
v1: Removing PWL point (3.715e-05,0)
v1: Removing PWL point (3.74e-05,3.3)
v1: Removing PWL point (3.8e-05,0)
v1: Removing PWL point (3.825e-05,3.3)
v1: Removing PWL point (3.885e-05,0)
v1: Removing PWL point (3.91e-05,3.3)
v1: Removing PWL point (3.975e-05,0)
v1: Removing PWL point (3.995e-05,3.3)
v1: Removing PWL point (4.06e-05,0)
v1: Removing PWL point (4.08e-05,3.3)
v1: Removing PWL point (4.145e-05,0)
v1: Removing PWL point (4.165e-05,3.3)
v1: Removing PWL point (4.235e-05,0)
v1: Removing PWL point (4.25e-05,3.3)
v1: Removing PWL point (4.32e-05,0)
v1: Removing PWL point (4.335e-05,3.3)
v1: Removing PWL point (4.405e-05,0)
v1: Removing PWL point (4.42e-05,3.3)
v1: Removing PWL point (4.49e-05,0)
v1: Removing PWL point (4.505e-05,3.3)
v1: Removing PWL point (4.59e-05,3.3)
v1: Removing PWL point (4.675e-05,3.3)
v1: Removing PWL point (4.76e-05,3.3)
v1: Removing PWL point (4.845e-05,3.3)
v1: Removing PWL point (4.93e-05,3.3)
v1: Removing PWL point (5.015e-05,3.3)
v1: Removing PWL point (5.1e-05,3.3)
v1: Removing PWL point (5.125e-05,0)
v1: Removing PWL point (5.21e-05,0)
v1: Removing PWL point (5.295e-05,0)
v1: Removing PWL point (5.38e-05,0)
v1: Removing PWL point (5.47e-05,0)
v1: Removing PWL point (5.555e-05,0)
v1: Removing PWL point (5.64e-05,0)
v1: Removing PWL point (5.725e-05,0)
v1: Removing PWL point (5.8e-05,3.3)
v1: Removing PWL point (5.815e-05,0)
v1: Removing PWL point (5.885e-05,3.3)
v1: Removing PWL point (5.9e-05,0)
v1: Removing PWL point (5.97e-05,3.3)
v1: Removing PWL point (5.985e-05,0)
v1: Removing PWL point (6.055e-05,3.3)
v1: Removing PWL point (6.07e-05,0)
v1: Removing PWL point (6.14e-05,3.3)
v1: Removing PWL point (6.16e-05,0)
v1: Removing PWL point (6.225e-05,3.3)
v1: Removing PWL point (6.245e-05,0)
v1: Removing PWL point (6.31e-05,3.3)
v1: Removing PWL point (6.33e-05,0)
v1: Removing PWL point (6.395e-05,3.3)
v1: Removing PWL point (6.415e-05,0)
v1: Removing PWL point (6.48e-05,3.3)
v1: Removing PWL point (6.505e-05,0)
v1: Removing PWL point (6.565e-05,3.3)
v1: Removing PWL point (6.59e-05,0)
v1: Removing PWL point (6.65e-05,3.3)
v1: Removing PWL point (6.675e-05,0)
v1: Removing PWL point (6.735e-05,3.3)
v1: Removing PWL point (6.765e-05,0)
v1: Removing PWL point (6.82e-05,3.3)
v1: Removing PWL point (6.85e-05,0)
v1: Removing PWL point (6.905e-05,3.3)
v1: Removing PWL point (6.935e-05,0)
v1: Removing PWL point (6.99e-05,3.3)
v1: Removing PWL point (7.02e-05,0)
v1: Removing PWL point (7.075e-05,3.3)
v1: Removing PWL point (7.11e-05,0)
v1: Removing PWL point (7.16e-05,3.3)
v1: Removing PWL point (7.195e-05,0)
v1: Removing PWL point (7.245e-05,3.3)
v1: Removing PWL point (7.28e-05,0)
v1: Removing PWL point (7.33e-05,3.3)
v1: Removing PWL point (7.365e-05,0)
v1: Removing PWL point (7.415e-05,3.3)
v1: Removing PWL point (7.455e-05,0)
v1: Removing PWL point (7.5e-05,3.3)
v1: Removing PWL point (7.54e-05,0)
v1: Removing PWL point (7.585e-05,3.3)
v1: Removing PWL point (7.625e-05,0)
v1: Removing PWL point (7.67e-05,3.3)
v1: Removing PWL point (7.71e-05,0)
v1: Removing PWL point (7.755e-05,3.3)
v1: Removing PWL point (7.8e-05,0)
v1: Removing PWL point (7.84e-05,3.3)
v1: Removing PWL point (7.885e-05,0)
v1: Removing PWL point (7.925e-05,3.3)
v1: Removing PWL point (7.97e-05,0)
v1: Removing PWL point (8.01e-05,3.3)
v1: Removing PWL point (8.06e-05,0)
v1: Removing PWL point (8.095e-05,3.3)
v1: Removing PWL point (8.145e-05,0)
v1: Removing PWL point (8.18e-05,3.3)
v1: Removing PWL point (8.23e-05,0)
v1: Removing PWL point (8.265e-05,3.3)
v1: Removing PWL point (8.315e-05,0)
v1: Removing PWL point (8.35e-05,3.3)
v1: Removing PWL point (8.405e-05,0)
v1: Removing PWL point (8.435e-05,3.3)
v1: Removing PWL point (8.49e-05,0)
v1: Removing PWL point (8.52e-05,3.3)
v1: Removing PWL point (8.575e-05,0)
v1: Removing PWL point (8.605e-05,3.3)
v1: Removing PWL point (8.66e-05,0)
v1: Removing PWL point (8.69e-05,3.3)
v1: Removing PWL point (8.75e-05,0)
v1: Removing PWL point (8.775e-05,3.3)
v1: Removing PWL point (8.835e-05,0)
v1: Removing PWL point (8.86e-05,3.3)
v1: Removing PWL point (8.92e-05,0)
v1: Removing PWL point (8.945e-05,3.3)
v1: Removing PWL point (9.005e-05,0)
v1: Removing PWL point (9.03e-05,3.3)
v1: Removing PWL point (9.095e-05,0)
v1: Removing PWL point (9.115e-05,3.3)
v1: Removing PWL point (9.18e-05,0)
v1: Removing PWL point (9.2e-05,3.3)
v1: Removing PWL point (9.265e-05,0)
v1: Removing PWL point (9.285e-05,3.3)
v1: Removing PWL point (9.355e-05,0)
v1: Removing PWL point (9.37e-05,3.3)
v1: Removing PWL point (9.44e-05,0)
v1: Removing PWL point (9.455e-05,3.3)
v1: Removing PWL point (9.525e-05,0)
v1: Removing PWL point (9.54e-05,3.3)
v1: Removing PWL point (9.61e-05,0)
v1: Removing PWL point (9.625e-05,3.3)
v1: Removing PWL point (9.71e-05,3.3)
v1: Removing PWL point (9.795e-05,3.3)
v1: Removing PWL point (9.88e-05,3.3)
v1: Removing PWL point (9.965e-05,3.3)
v1: Removing PWL point (0.0001005,3.3)
v1: Removing PWL point (0.00010135,3.3)
v1: Removing PWL point (0.0001022,3.3)
v1: Removing PWL point (0.00010245,0)
v1: Removing PWL point (0.0001033,0)
v1: Removing PWL point (0.00010415,0)
v1: Removing PWL point (0.000105,0)
v1: Removing PWL point (0.0001059,0)
v1: Removing PWL point (0.00010675,0)
v1: Removing PWL point (0.0001076,0)
v1: Removing PWL point (0.00010845,0)
v1: Removing PWL point (0.0001092,3.3)
v1: Removing PWL point (0.00010935,0)
v1: Removing PWL point (0.00011005,3.3)
v1: Removing PWL point (0.0001102,0)
v1: Removing PWL point (0.0001109,3.3)
v1: Removing PWL point (0.00011105,0)
v1: Removing PWL point (0.00011175,3.3)
v1: Removing PWL point (0.0001119,0)
v1: Removing PWL point (0.0001126,3.3)
v1: Removing PWL point (0.0001128,0)
v1: Removing PWL point (0.00011345,3.3)
v1: Removing PWL point (0.00011365,0)
v1: Removing PWL point (0.0001143,3.3)
v1: Removing PWL point (0.0001145,0)
v1: Removing PWL point (0.00011515,3.3)
v1: Removing PWL point (0.00011535,0)
v1: Removing PWL point (0.000116,3.3)
v1: Removing PWL point (0.00011625,0)
v1: Removing PWL point (0.00011685,3.3)
v1: Removing PWL point (0.0001171,0)
v1: Removing PWL point (0.0001177,3.3)
v1: Removing PWL point (0.00011795,0)
v1: Removing PWL point (0.00011855,3.3)
v1: Removing PWL point (0.00011885,0)
v1: Removing PWL point (0.0001194,3.3)
v1: Removing PWL point (0.0001197,0)
v1: Removing PWL point (0.00012025,3.3)
v1: Removing PWL point (0.00012055,0)
v1: Removing PWL point (0.0001211,3.3)
v1: Removing PWL point (0.0001214,0)
v1: Removing PWL point (0.00012195,3.3)
v1: Removing PWL point (0.0001223,0)
v1: Removing PWL point (0.0001228,3.3)
v1: Removing PWL point (0.00012315,0)
v1: Removing PWL point (0.00012365,3.3)
v1: Removing PWL point (0.000124,0)
v1: Removing PWL point (0.0001245,3.3)
v1: Removing PWL point (0.00012485,0)
v1: Removing PWL point (0.00012535,3.3)
v1: Removing PWL point (0.00012575,0)
v1: Removing PWL point (0.0001262,3.3)
v1: Removing PWL point (0.0001266,0)
v1: Removing PWL point (0.00012705,3.3)
v1: Removing PWL point (0.00012745,0)
v1: Removing PWL point (0.0001279,3.3)
v1: Removing PWL point (0.0001283,0)
v1: Removing PWL point (0.00012875,3.3)
v1: Removing PWL point (0.0001292,0)
v1: Removing PWL point (0.0001296,3.3)
v1: Removing PWL point (0.00013005,0)
v1: Removing PWL point (0.00013045,3.3)
v1: Removing PWL point (0.0001309,0)
v1: Removing PWL point (0.0001313,3.3)
v1: Removing PWL point (0.0001318,0)
v1: Removing PWL point (0.00013215,3.3)
v1: Removing PWL point (0.00013265,0)
v1: Removing PWL point (0.000133,3.3)
v1: Removing PWL point (0.0001335,0)
v1: Removing PWL point (0.00013385,3.3)
v1: Removing PWL point (0.00013435,0)
v1: Removing PWL point (0.0001347,3.3)
v1: Removing PWL point (0.00013525,0)
v1: Removing PWL point (0.00013555,3.3)
v1: Removing PWL point (0.0001361,0)
v1: Removing PWL point (0.0001364,3.3)
v1: Removing PWL point (0.00013695,0)
v1: Removing PWL point (0.00013725,3.3)
v1: Removing PWL point (0.0001378,0)
v1: Removing PWL point (0.0001381,3.3)
v1: Removing PWL point (0.0001387,0)
v1: Removing PWL point (0.00013895,3.3)
v1: Removing PWL point (0.00013955,0)
v1: Removing PWL point (0.0001398,3.3)
v1: Removing PWL point (0.0001404,0)
v1: Removing PWL point (0.00014065,3.3)
v1: Removing PWL point (0.00014125,0)
v1: Removing PWL point (0.0001415,3.3)
v1: Removing PWL point (0.00014215,0)
v1: Removing PWL point (0.00014235,3.3)
v1: Removing PWL point (0.000143,0)
v1: Removing PWL point (0.0001432,3.3)
v1: Removing PWL point (0.00014385,0)
v1: Removing PWL point (0.00014405,3.3)
v1: Removing PWL point (0.00014475,0)
v1: Removing PWL point (0.0001449,3.3)
v1: Removing PWL point (0.0001456,0)
v1: Removing PWL point (0.00014575,3.3)
v1: Removing PWL point (0.00014645,0)
v1: Removing PWL point (0.0001466,3.3)
v1: Removing PWL point (0.0001473,0)
v1: Removing PWL point (0.00014745,3.3)
v1: Removing PWL point (0.0001483,3.3)
v1: Removing PWL point (0.00014915,3.3)
v1: Removing PWL point (0.00015,3.3)
v1: Removing PWL point (0.00015085,3.3)
v1: Removing PWL point (0.0001517,3.3)
v1: Removing PWL point (0.00015255,3.3)
v1: Removing PWL point (0.0001534,3.3)
v1: Removing PWL point (0.00015365,0)
v1: Removing PWL point (0.0001545,0)
v1: Removing PWL point (0.00015535,0)
v1: Removing PWL point (0.0001562,0)
v1: Removing PWL point (0.0001571,0)
v1: Removing PWL point (0.00015795,0)
v1: Removing PWL point (0.0001588,0)
v1: Removing PWL point (0.00015965,0)
v1: Removing PWL point (0.0001604,3.3)
v1: Removing PWL point (0.00016055,0)
v1: Removing PWL point (0.00016125,3.3)
v1: Removing PWL point (0.0001614,0)
v1: Removing PWL point (0.0001621,3.3)
v1: Removing PWL point (0.00016225,0)
v1: Removing PWL point (0.00016295,3.3)
v1: Removing PWL point (0.0001631,0)
v1: Removing PWL point (0.0001638,3.3)
v1: Removing PWL point (0.000164,0)
v1: Removing PWL point (0.00016465,3.3)
v1: Removing PWL point (0.00016485,0)
v1: Removing PWL point (0.0001655,3.3)
v1: Removing PWL point (0.0001657,0)
v1: Removing PWL point (0.00016635,3.3)
v1: Removing PWL point (0.00016655,0)
v1: Removing PWL point (0.0001672,3.3)
v1: Removing PWL point (0.00016745,0)
v1: Removing PWL point (0.00016805,3.3)
v1: Removing PWL point (0.0001683,0)
v1: Removing PWL point (0.0001689,3.3)
v1: Removing PWL point (0.00016915,0)
v1: Removing PWL point (0.00016975,3.3)
v1: Removing PWL point (0.00017005,0)
v1: Removing PWL point (0.0001706,3.3)
v1: Removing PWL point (0.0001709,0)
v1: Removing PWL point (0.00017145,3.3)
v1: Removing PWL point (0.00017175,0)
v1: Removing PWL point (0.0001723,3.3)
v1: Removing PWL point (0.0001726,0)
v1: Removing PWL point (0.00017315,3.3)
v1: Removing PWL point (0.0001735,0)
v1: Removing PWL point (0.000174,3.3)
v1: Removing PWL point (0.00017435,0)
v1: Removing PWL point (0.00017485,3.3)
v1: Removing PWL point (0.0001752,0)
v1: Removing PWL point (0.0001757,3.3)
v1: Removing PWL point (0.00017605,0)
v1: Removing PWL point (0.00017655,3.3)
v1: Removing PWL point (0.00017695,0)
v1: Removing PWL point (0.0001774,3.3)
v1: Removing PWL point (0.0001778,0)
v1: Removing PWL point (0.00017825,3.3)
v1: Removing PWL point (0.00017865,0)
v1: Removing PWL point (0.0001791,3.3)
v1: Removing PWL point (0.0001795,0)
v1: Removing PWL point (0.00017995,3.3)
v1: Removing PWL point (0.0001804,0)
v1: Removing PWL point (0.0001808,3.3)
v1: Removing PWL point (0.00018125,0)
v1: Removing PWL point (0.00018165,3.3)
v1: Removing PWL point (0.0001821,0)
v1: Removing PWL point (0.0001825,3.3)
v1: Removing PWL point (0.000183,0)
v1: Removing PWL point (0.00018335,3.3)
v1: Removing PWL point (0.00018385,0)
v1: Removing PWL point (0.0001842,3.3)
v1: Removing PWL point (0.0001847,0)
v1: Removing PWL point (0.00018505,3.3)
v1: Removing PWL point (0.00018555,0)
v1: Removing PWL point (0.0001859,3.3)
v1: Removing PWL point (0.00018645,0)
v1: Removing PWL point (0.00018675,3.3)
v1: Removing PWL point (0.0001873,0)
v1: Removing PWL point (0.0001876,3.3)
v1: Removing PWL point (0.00018815,0)
v1: Removing PWL point (0.00018845,3.3)
v1: Removing PWL point (0.000189,0)
v1: Removing PWL point (0.0001893,3.3)
v1: Removing PWL point (0.0001899,0)
v1: Removing PWL point (0.00019015,3.3)
v1: Removing PWL point (0.00019075,0)
v1: Removing PWL point (0.000191,3.3)
v1: Removing PWL point (0.0001916,0)
v1: Removing PWL point (0.00019185,3.3)
v1: Removing PWL point (0.00019245,0)
v1: Removing PWL point (0.0001927,3.3)
v1: Removing PWL point (0.00019335,0)
v1: Removing PWL point (0.00019355,3.3)
v1: Removing PWL point (0.0001942,0)
v1: Removing PWL point (0.0001944,3.3)
v1: Removing PWL point (0.00019505,0)
v1: Removing PWL point (0.00019525,3.3)
v1: Removing PWL point (0.00019595,0)
v1: Removing PWL point (0.0001961,3.3)
v1: Removing PWL point (0.0001968,0)
v1: Removing PWL point (0.00019695,3.3)
v1: Removing PWL point (0.00019765,0)
v1: Removing PWL point (0.0001978,3.3)
v1: Removing PWL point (0.0001985,0)
v1: Removing PWL point (0.00019865,3.3)
v1: Removing PWL point (0.0001995,3.3)
v1: Removing PWL point (0.00020035,3.3)
v1: Removing PWL point (0.0002012,3.3)
v1: Removing PWL point (0.00020205,3.3)
v1: Removing PWL point (0.0002029,3.3)
v1: Removing PWL point (0.00020375,3.3)
v1: Removing PWL point (0.0002046,3.3)
v1: Removing PWL point (0.00020485,0)
v1: Removing PWL point (0.0002057,0)
v1: Removing PWL point (0.00020655,0)
v1: Removing PWL point (0.0002074,0)
v1: Removing PWL point (0.0002083,0)
v1: Removing PWL point (0.00020915,0)
v1: Removing PWL point (0.00021,0)
v1: Removing PWL point (0.00021085,0)
v1: Removing PWL point (0.0002116,3.3)
v1: Removing PWL point (0.00021175,0)
v1: Removing PWL point (0.00021245,3.3)
v1: Removing PWL point (0.0002126,0)
v1: Removing PWL point (0.0002133,3.3)
v1: Removing PWL point (0.00021345,0)
v1: Removing PWL point (0.00021415,3.3)
v1: Removing PWL point (0.0002143,0)
v1: Removing PWL point (0.000215,3.3)
v1: Removing PWL point (0.0002152,0)
v1: Removing PWL point (0.00021585,3.3)
v1: Removing PWL point (0.00021605,0)
v1: Removing PWL point (0.0002167,3.3)
v1: Removing PWL point (0.0002169,0)
v1: Removing PWL point (0.00021755,3.3)
v1: Removing PWL point (0.00021775,0)
v1: Removing PWL point (0.0002184,3.3)
v1: Removing PWL point (0.00021865,0)
v1: Removing PWL point (0.00021925,3.3)
v1: Removing PWL point (0.0002195,0)
v1: Removing PWL point (0.0002201,3.3)
v1: Removing PWL point (0.00022035,0)
v1: Removing PWL point (0.00022095,3.3)
v1: Removing PWL point (0.00022125,0)
v1: Removing PWL point (0.0002218,3.3)
v1: Removing PWL point (0.0002221,0)
v1: Removing PWL point (0.00022265,3.3)
v1: Removing PWL point (0.00022295,0)
v1: Removing PWL point (0.0002235,3.3)
v1: Removing PWL point (0.0002238,0)
v1: Removing PWL point (0.00022435,3.3)
v1: Removing PWL point (0.0002247,0)
v1: Removing PWL point (0.0002252,3.3)
v1: Removing PWL point (0.00022555,0)
v1: Removing PWL point (0.00022605,3.3)
v1: Removing PWL point (0.0002264,0)
v1: Removing PWL point (0.0002269,3.3)
v1: Removing PWL point (0.00022725,0)
v1: Removing PWL point (0.00022775,3.3)
v1: Removing PWL point (0.00022815,0)
v1: Removing PWL point (0.0002286,3.3)
v1: Removing PWL point (0.000229,0)
v1: Removing PWL point (0.00022945,3.3)
v1: Removing PWL point (0.00022985,0)
v1: Removing PWL point (0.0002303,3.3)
v1: Removing PWL point (0.0002307,0)
v1: Removing PWL point (0.00023115,3.3)
v1: Removing PWL point (0.0002316,0)
v1: Removing PWL point (0.000232,3.3)
v1: Removing PWL point (0.00023245,0)
v1: Removing PWL point (0.00023285,3.3)
v1: Removing PWL point (0.0002333,0)
v1: Removing PWL point (0.0002337,3.3)
v1: Removing PWL point (0.0002342,0)
v1: Removing PWL point (0.00023455,3.3)
v1: Removing PWL point (0.00023505,0)
v1: Removing PWL point (0.0002354,3.3)
v1: Removing PWL point (0.0002359,0)
v1: Removing PWL point (0.00023625,3.3)
v1: Removing PWL point (0.00023675,0)
v1: Removing PWL point (0.0002371,3.3)
v1: Removing PWL point (0.00023765,0)
v1: Removing PWL point (0.00023795,3.3)
v1: Removing PWL point (0.0002385,0)
v1: Removing PWL point (0.0002388,3.3)
v1: Removing PWL point (0.00023935,0)
v1: Removing PWL point (0.00023965,3.3)
v1: Removing PWL point (0.0002402,0)
v1: Removing PWL point (0.0002405,3.3)
v1: Removing PWL point (0.0002411,0)
v1: Removing PWL point (0.00024135,3.3)
v1: Removing PWL point (0.00024195,0)
v1: Removing PWL point (0.0002422,3.3)
v1: Removing PWL point (0.0002428,0)
v1: Removing PWL point (0.00024305,3.3)
v1: Removing PWL point (0.00024365,0)
v1: Removing PWL point (0.0002439,3.3)
v1: Removing PWL point (0.00024455,0)
v1: Removing PWL point (0.00024475,3.3)
v1: Removing PWL point (0.0002454,0)
v1: Removing PWL point (0.0002456,3.3)
v1: Removing PWL point (0.00024625,0)
v1: Removing PWL point (0.00024645,3.3)
v1: Removing PWL point (0.00024715,0)
v1: Removing PWL point (0.0002473,3.3)
v1: Removing PWL point (0.000248,0)
v1: Removing PWL point (0.00024815,3.3)
v1: Removing PWL point (0.00024885,0)
v1: Removing PWL point (0.000249,3.3)
v1: Removing PWL point (0.0002497,0)
v1: Removing PWL point (0.00024985,3.3)
v1: Removing PWL point (0.0002507,3.3)
v1: Removing PWL point (0.00025155,3.3)
v1: Removing PWL point (0.0002524,3.3)
v1: Removing PWL point (0.00025325,3.3)
v1: Removing PWL point (0.0002541,3.3)
v1: Removing PWL point (0.00025495,3.3)
v1: Removing PWL point (0.0002558,3.3)
v1: Removing PWL point (0.00025605,0)
v1: Removing PWL point (0.0002569,0)
v1: Removing PWL point (0.00025775,0)
v1: Removing PWL point (0.0002586,0)
v1: Removing PWL point (0.0002595,0)
v1: Removing PWL point (0.00026035,0)
v1: Removing PWL point (0.0002612,0)
v1: Removing PWL point (0.00026205,0)
v1: Removing PWL point (0.0002628,3.3)
v1: Removing PWL point (0.00026295,0)
v1: Removing PWL point (0.00026365,3.3)
v1: Removing PWL point (0.0002638,0)
v1: Removing PWL point (0.0002645,3.3)
v1: Removing PWL point (0.00026465,0)
v1: Removing PWL point (0.00026535,3.3)
v1: Removing PWL point (0.0002655,0)
v1: Removing PWL point (0.0002662,3.3)
v1: Removing PWL point (0.0002664,0)
v1: Removing PWL point (0.00026705,3.3)
v1: Removing PWL point (0.00026725,0)
v1: Removing PWL point (0.0002679,3.3)
v1: Removing PWL point (0.0002681,0)
v1: Removing PWL point (0.00026875,3.3)
v1: Removing PWL point (0.00026895,0)
v1: Removing PWL point (0.0002696,3.3)
v1: Removing PWL point (0.00026985,0)
v1: Removing PWL point (0.00027045,3.3)
v1: Removing PWL point (0.0002707,0)
v1: Removing PWL point (0.0002713,3.3)
v1: Removing PWL point (0.00027155,0)
v1: Removing PWL point (0.00027215,3.3)
v1: Removing PWL point (0.00027245,0)
v1: Removing PWL point (0.000273,3.3)
v1: Removing PWL point (0.0002733,0)
v1: Removing PWL point (0.00027385,3.3)
v1: Removing PWL point (0.00027415,0)
v1: Removing PWL point (0.0002747,3.3)
v1: Removing PWL point (0.000275,0)
v1: Removing PWL point (0.00027555,3.3)
v1: Removing PWL point (0.0002759,0)
v1: Removing PWL point (0.0002764,3.3)
v1: Removing PWL point (0.00027675,0)
v1: Removing PWL point (0.00027725,3.3)
v1: Removing PWL point (0.0002776,0)
v1: Removing PWL point (0.0002781,3.3)
v1: Removing PWL point (0.00027845,0)
v1: Removing PWL point (0.00027895,3.3)
v1: Removing PWL point (0.00027935,0)
v1: Removing PWL point (0.0002798,3.3)
v1: Removing PWL point (0.0002802,0)
v1: Removing PWL point (0.00028065,3.3)
v1: Removing PWL point (0.00028105,0)
v1: Removing PWL point (0.0002815,3.3)
v1: Removing PWL point (0.0002819,0)
v1: Removing PWL point (0.00028235,3.3)
v1: Removing PWL point (0.0002828,0)
v1: Removing PWL point (0.0002832,3.3)
v1: Removing PWL point (0.00028365,0)
v1: Removing PWL point (0.00028405,3.3)
v1: Removing PWL point (0.0002845,0)
v1: Removing PWL point (0.0002849,3.3)
v1: Removing PWL point (0.0002854,0)
v1: Removing PWL point (0.00028575,3.3)
v1: Removing PWL point (0.00028625,0)
v1: Removing PWL point (0.0002866,3.3)
v1: Removing PWL point (0.0002871,0)
v1: Removing PWL point (0.00028745,3.3)
v1: Removing PWL point (0.00028795,0)
v1: Removing PWL point (0.0002883,3.3)
v1: Removing PWL point (0.00028885,0)
v1: Removing PWL point (0.00028915,3.3)
v1: Removing PWL point (0.0002897,0)
v1: Removing PWL point (0.00029,3.3)
v1: Removing PWL point (0.00029055,0)
v1: Removing PWL point (0.00029085,3.3)
v1: Removing PWL point (0.0002914,0)
v1: Removing PWL point (0.0002917,3.3)
v1: Removing PWL point (0.0002923,0)
v1: Removing PWL point (0.00029255,3.3)
v1: Removing PWL point (0.00029315,0)
v1: Removing PWL point (0.0002934,3.3)
v1: Removing PWL point (0.000294,0)
v1: Removing PWL point (0.00029425,3.3)
v1: Removing PWL point (0.00029485,0)
v1: Removing PWL point (0.0002951,3.3)
v1: Removing PWL point (0.00029575,0)
v1: Removing PWL point (0.00029595,3.3)
v1: Removing PWL point (0.0002966,0)
v1: Removing PWL point (0.0002968,3.3)
v1: Removing PWL point (0.00029745,0)
v1: Removing PWL point (0.00029765,3.3)
v1: Removing PWL point (0.00029835,0)
v1: Removing PWL point (0.0002985,3.3)
v1: Removing PWL point (0.0002992,0)
v1: Removing PWL point (0.00029935,3.3)
v1: Removing PWL point (0.00030005,0)
v1: Removing PWL point (0.0003002,3.3)
v1: Removing PWL point (0.0003009,0)
v1: Removing PWL point (0.00030105,3.3)
v1: Removing PWL point (0.0003019,3.3)
v1: Removing PWL point (0.00030275,3.3)
v1: Removing PWL point (0.0003036,3.3)
v1: Removing PWL point (0.00030445,3.3)
v1: Removing PWL point (0.0003053,3.3)
v1: Removing PWL point (0.00030615,3.3)
v1: Removing PWL point (0.000307,3.3)
v1: Removing PWL point (0.00030725,0)
v1: Removing PWL point (0.0003081,0)
v1: Removing PWL point (0.00030895,0)
v1: Removing PWL point (0.0003098,0)
v1: Removing PWL point (0.0003107,0)
v1: Removing PWL point (0.00031155,0)
v1: Removing PWL point (0.0003124,0)
v1: Removing PWL point (0.00031325,0)
v1: Removing PWL point (0.000314,3.3)
v1: Removing PWL point (0.00031415,0)
v1: Removing PWL point (0.00031485,3.3)
v1: Removing PWL point (0.000315,0)
v1: Removing PWL point (0.0003157,3.3)
v1: Removing PWL point (0.00031585,0)
v1: Removing PWL point (0.00031655,3.3)
v1: Removing PWL point (0.0003167,0)
v1: Removing PWL point (0.0003174,3.3)
v1: Removing PWL point (0.0003176,0)
v1: Removing PWL point (0.00031825,3.3)
v1: Removing PWL point (0.00031845,0)
v1: Removing PWL point (0.0003191,3.3)
v1: Removing PWL point (0.0003193,0)
v1: Removing PWL point (0.00031995,3.3)
v1: Removing PWL point (0.00032015,0)
v1: Removing PWL point (0.0003208,3.3)
v1: Removing PWL point (0.00032105,0)
v1: Removing PWL point (0.00032165,3.3)
v1: Removing PWL point (0.0003219,0)
v1: Removing PWL point (0.0003225,3.3)
v1: Removing PWL point (0.00032275,0)
v1: Removing PWL point (0.00032335,3.3)
v1: Removing PWL point (0.00032365,0)
v1: Removing PWL point (0.0003242,3.3)
v1: Removing PWL point (0.0003245,0)
v1: Removing PWL point (0.00032505,3.3)
v1: Removing PWL point (0.00032535,0)
v1: Removing PWL point (0.0003259,3.3)
v1: Removing PWL point (0.0003262,0)
v1: Removing PWL point (0.00032675,3.3)
v1: Removing PWL point (0.0003271,0)
v1: Removing PWL point (0.0003276,3.3)
v1: Removing PWL point (0.00032795,0)
v1: Removing PWL point (0.00032845,3.3)
v1: Removing PWL point (0.0003288,0)
v1: Removing PWL point (0.0003293,3.3)
v1: Removing PWL point (0.00032965,0)
v1: Removing PWL point (0.00033015,3.3)
v1: Removing PWL point (0.00033055,0)
v1: Removing PWL point (0.000331,3.3)
v1: Removing PWL point (0.0003314,0)
v1: Removing PWL point (0.00033185,3.3)
v1: Removing PWL point (0.00033225,0)
v1: Removing PWL point (0.0003327,3.3)
v1: Removing PWL point (0.0003331,0)
v1: Removing PWL point (0.00033355,3.3)
v1: Removing PWL point (0.000334,0)
v1: Removing PWL point (0.0003344,3.3)
v1: Removing PWL point (0.00033485,0)
v1: Removing PWL point (0.00033525,3.3)
v1: Removing PWL point (0.0003357,0)
v1: Removing PWL point (0.0003361,3.3)
v1: Removing PWL point (0.0003366,0)
v1: Removing PWL point (0.00033695,3.3)
v1: Removing PWL point (0.00033745,0)
v1: Removing PWL point (0.0003378,3.3)
v1: Removing PWL point (0.0003383,0)
v1: Removing PWL point (0.00033865,3.3)
v1: Removing PWL point (0.00033915,0)
v1: Removing PWL point (0.0003395,3.3)
v1: Removing PWL point (0.00034005,0)
v1: Removing PWL point (0.00034035,3.3)
v1: Removing PWL point (0.0003409,0)
v1: Removing PWL point (0.0003412,3.3)
v1: Removing PWL point (0.00034175,0)
v1: Removing PWL point (0.00034205,3.3)
v1: Removing PWL point (0.0003426,0)
v1: Removing PWL point (0.0003429,3.3)
v1: Removing PWL point (0.0003435,0)
v1: Removing PWL point (0.00034375,3.3)
v1: Removing PWL point (0.00034435,0)
v1: Removing PWL point (0.0003446,3.3)
v1: Removing PWL point (0.0003452,0)
v1: Removing PWL point (0.00034545,3.3)
v1: Removing PWL point (0.00034605,0)
v1: Removing PWL point (0.0003463,3.3)
v1: Removing PWL point (0.00034695,0)
v1: Removing PWL point (0.00034715,3.3)
v1: Removing PWL point (0.0003478,0)
v1: Removing PWL point (0.000348,3.3)
v1: Removing PWL point (0.00034865,0)
v1: Removing PWL point (0.00034885,3.3)
v1: Removing PWL point (0.00034955,0)
v1: Removing PWL point (0.0003497,3.3)
v1: Removing PWL point (0.0003504,0)
v1: Removing PWL point (0.00035055,3.3)
v1: Removing PWL point (0.00035125,0)
v1: Removing PWL point (0.0003514,3.3)
v1: Removing PWL point (0.0003521,0)
v1: Removing PWL point (0.00035225,3.3)
v1: Removing PWL point (0.0003531,3.3)
v1: Removing PWL point (0.00035395,3.3)
v1: Removing PWL point (0.0003548,3.3)
v1: Removing PWL point (0.00035565,3.3)
v1: Removing PWL point (0.0003565,3.3)
v1: Removing PWL point (0.00035735,3.3)
v1: Removing PWL point (0.0003582,3.3)
v1: Removing PWL point (0.00035845,0)
v1: Removing PWL point (0.0003593,0)
v1: Removing PWL point (0.00036015,0)
v1: Removing PWL point (0.000361,0)
v1: Removing PWL point (0.0003619,0)
v1: Removing PWL point (0.00036275,0)
v1: Removing PWL point (0.0003636,0)
v1: Removing PWL point (0.00036445,0)
v1: Removing PWL point (0.0003652,3.3)
v1: Removing PWL point (0.00036535,0)
v1: Removing PWL point (0.00036605,3.3)
v1: Removing PWL point (0.0003662,0)
v1: Removing PWL point (0.0003669,3.3)
v1: Removing PWL point (0.00036705,0)
v1: Removing PWL point (0.00036775,3.3)
v1: Removing PWL point (0.0003679,0)
v1: Removing PWL point (0.0003686,3.3)
v1: Removing PWL point (0.0003688,0)
v1: Removing PWL point (0.00036945,3.3)
v1: Removing PWL point (0.00036965,0)
v1: Removing PWL point (0.0003703,3.3)
v1: Removing PWL point (0.0003705,0)
v1: Removing PWL point (0.00037115,3.3)
v1: Removing PWL point (0.00037135,0)
v1: Removing PWL point (0.000372,3.3)
v1: Removing PWL point (0.00037225,0)
v1: Removing PWL point (0.00037285,3.3)
v1: Removing PWL point (0.0003731,0)
v1: Removing PWL point (0.0003737,3.3)
v1: Removing PWL point (0.00037395,0)
v1: Removing PWL point (0.00037455,3.3)
v1: Removing PWL point (0.00037485,0)
v1: Removing PWL point (0.0003754,3.3)
v1: Removing PWL point (0.0003757,0)
v1: Removing PWL point (0.00037625,3.3)
v1: Removing PWL point (0.00037655,0)
v1: Removing PWL point (0.0003771,3.3)
v1: Removing PWL point (0.0003774,0)
v1: Removing PWL point (0.00037795,3.3)
v1: Removing PWL point (0.0003783,0)
v1: Removing PWL point (0.0003788,3.3)
v1: Removing PWL point (0.00037915,0)
v1: Removing PWL point (0.00037965,3.3)
v1: Removing PWL point (0.00038,0)
v1: Removing PWL point (0.0003805,3.3)
v1: Removing PWL point (0.00038085,0)
v1: Removing PWL point (0.00038135,3.3)
v1: Removing PWL point (0.00038175,0)
v1: Removing PWL point (0.0003822,3.3)
v1: Removing PWL point (0.0003826,0)
v1: Removing PWL point (0.00038305,3.3)
v1: Removing PWL point (0.00038345,0)
v1: Removing PWL point (0.0003839,3.3)
v1: Removing PWL point (0.0003843,0)
v1: Removing PWL point (0.00038475,3.3)
v1: Removing PWL point (0.0003852,0)
v1: Removing PWL point (0.0003856,3.3)
v1: Removing PWL point (0.00038605,0)
v1: Removing PWL point (0.00038645,3.3)
v1: Removing PWL point (0.0003869,0)
v1: Removing PWL point (0.0003873,3.3)
v1: Removing PWL point (0.0003878,0)
v1: Removing PWL point (0.00038815,3.3)
v1: Removing PWL point (0.00038865,0)
v1: Removing PWL point (0.000389,3.3)
v1: Removing PWL point (0.0003895,0)
v1: Removing PWL point (0.00038985,3.3)
v1: Removing PWL point (0.00039035,0)
v1: Removing PWL point (0.0003907,3.3)
v1: Removing PWL point (0.00039125,0)
v1: Removing PWL point (0.00039155,3.3)
v1: Removing PWL point (0.0003921,0)
v1: Removing PWL point (0.0003924,3.3)
v1: Removing PWL point (0.00039295,0)
v1: Removing PWL point (0.00039325,3.3)
v1: Removing PWL point (0.0003938,0)
v1: Removing PWL point (0.0003941,3.3)
v1: Removing PWL point (0.0003947,0)
v1: Removing PWL point (0.00039495,3.3)
v1: Removing PWL point (0.00039555,0)
v1: Removing PWL point (0.0003958,3.3)
v1: Removing PWL point (0.0003964,0)
v1: Removing PWL point (0.00039665,3.3)
v1: Removing PWL point (0.00039725,0)
v1: Removing PWL point (0.0003975,3.3)
v1: Removing PWL point (0.00039815,0)
v1: Removing PWL point (0.00039835,3.3)
v1: Removing PWL point (0.000399,0)
v1: Removing PWL point (0.0003992,3.3)
v1: Removing PWL point (0.00039985,0)
v1: Removing PWL point (0.00040005,3.3)
v1: Removing PWL point (0.00040075,0)
v1: Removing PWL point (0.0004009,3.3)
v1: Removing PWL point (0.0004016,0)
v1: Removing PWL point (0.00040175,3.3)
v1: Removing PWL point (0.00040245,0)
v1: Removing PWL point (0.0004026,3.3)
v1: Removing PWL point (0.0004033,0)
v1: Removing PWL point (0.00040345,3.3)
v1: Removing PWL point (0.0004043,3.3)
v1: Removing PWL point (0.00040515,3.3)
v1: Removing PWL point (0.000406,3.3)
v1: Removing PWL point (0.00040685,3.3)
v1: Removing PWL point (0.0004077,3.3)
v1: Removing PWL point (0.00040855,3.3)
v1: Removing PWL point (0.0004094,3.3)
v1: Removing PWL point (0.00040965,0)
v1: Removing PWL point (0.0004105,0)
v1: Removing PWL point (0.00041135,0)
v1: Removing PWL point (0.0004122,0)
v1: Removing PWL point (0.0004131,0)
v1: Removing PWL point (0.00041395,0)
v1: Removing PWL point (0.0004148,0)
v1: Removing PWL point (0.00041565,0)
v1: Removing PWL point (0.0004164,3.3)
v1: Removing PWL point (0.00041655,0)
v1: Removing PWL point (0.00041725,3.3)
v1: Removing PWL point (0.0004174,0)
v1: Removing PWL point (0.0004181,3.3)
v1: Removing PWL point (0.00041825,0)
v1: Removing PWL point (0.00041895,3.3)
v1: Removing PWL point (0.0004191,0)
v1: Removing PWL point (0.0004198,3.3)
v1: Removing PWL point (0.00042,0)
v1: Removing PWL point (0.00042065,3.3)
v1: Removing PWL point (0.00042085,0)
v1: Removing PWL point (0.0004215,3.3)
v1: Removing PWL point (0.0004217,0)
v1: Removing PWL point (0.00042235,3.3)
v1: Removing PWL point (0.00042255,0)
v1: Removing PWL point (0.0004232,3.3)
v1: Removing PWL point (0.00042345,0)
v1: Removing PWL point (0.00042405,3.3)
v1: Removing PWL point (0.0004243,0)
v1: Removing PWL point (0.0004249,3.3)
v1: Removing PWL point (0.00042515,0)
v1: Removing PWL point (0.00042575,3.3)
v1: Removing PWL point (0.00042605,0)
v1: Removing PWL point (0.0004266,3.3)
v1: Removing PWL point (0.0004269,0)
v1: Removing PWL point (0.00042745,3.3)
v1: Removing PWL point (0.00042775,0)
v1: Removing PWL point (0.0004283,3.3)
v1: Removing PWL point (0.0004286,0)
v1: Removing PWL point (0.00042915,3.3)
v1: Removing PWL point (0.0004295,0)
v1: Removing PWL point (0.00043,3.3)
v1: Removing PWL point (0.00043035,0)
v1: Removing PWL point (0.00043085,3.3)
v1: Removing PWL point (0.0004312,0)
v1: Removing PWL point (0.0004317,3.3)
v1: Removing PWL point (0.00043205,0)
v1: Removing PWL point (0.00043255,3.3)
v1: Removing PWL point (0.00043295,0)
v1: Removing PWL point (0.0004334,3.3)
v1: Removing PWL point (0.0004338,0)
v1: Removing PWL point (0.00043425,3.3)
v1: Removing PWL point (0.00043465,0)
v1: Removing PWL point (0.0004351,3.3)
v1: Removing PWL point (0.0004355,0)
v1: Removing PWL point (0.00043595,3.3)
v1: Removing PWL point (0.0004364,0)
v1: Removing PWL point (0.0004368,3.3)
v1: Removing PWL point (0.00043725,0)
v1: Removing PWL point (0.00043765,3.3)
v1: Removing PWL point (0.0004381,0)
v1: Removing PWL point (0.0004385,3.3)
v1: Removing PWL point (0.000439,0)
v1: Removing PWL point (0.00043935,3.3)
v1: Removing PWL point (0.00043985,0)
v1: Removing PWL point (0.0004402,3.3)
v1: Removing PWL point (0.0004407,0)
v1: Removing PWL point (0.00044105,3.3)
v1: Removing PWL point (0.00044155,0)
v1: Removing PWL point (0.0004419,3.3)
v1: Removing PWL point (0.00044245,0)
v1: Removing PWL point (0.00044275,3.3)
v1: Removing PWL point (0.0004433,0)
v1: Removing PWL point (0.0004436,3.3)
v1: Removing PWL point (0.00044415,0)
v1: Removing PWL point (0.00044445,3.3)
v1: Removing PWL point (0.000445,0)
v1: Removing PWL point (0.0004453,3.3)
v1: Removing PWL point (0.0004459,0)
v1: Removing PWL point (0.00044615,3.3)
v1: Removing PWL point (0.00044675,0)
v1: Removing PWL point (0.000447,3.3)
v1: Removing PWL point (0.0004476,0)
v1: Removing PWL point (0.00044785,3.3)
v1: Removing PWL point (0.00044845,0)
v1: Removing PWL point (0.0004487,3.3)
v1: Removing PWL point (0.00044935,0)
v1: Removing PWL point (0.00044955,3.3)
v1: Removing PWL point (0.0004502,0)
v1: Removing PWL point (0.0004504,3.3)
v1: Removing PWL point (0.00045105,0)
v1: Removing PWL point (0.00045125,3.3)
v1: Removing PWL point (0.00045195,0)
v1: Removing PWL point (0.0004521,3.3)
v1: Removing PWL point (0.0004528,0)
v1: Removing PWL point (0.00045295,3.3)
v1: Removing PWL point (0.00045365,0)
v1: Removing PWL point (0.0004538,3.3)
v1: Removing PWL point (0.0004545,0)
v1: Removing PWL point (0.00045465,3.3)
v1: Removing PWL point (0.0004555,3.3)
v1: Removing PWL point (0.00045635,3.3)
v1: Removing PWL point (0.0004572,3.3)
v1: Removing PWL point (0.00045805,3.3)
v1: Removing PWL point (0.0004589,3.3)
v1: Removing PWL point (0.00045975,3.3)
v1: Removing PWL point (0.0004606,3.3)
v1: Removing PWL point (0.00046085,0)
v1: Removing PWL point (0.0004617,0)
v1: Removing PWL point (0.00046255,0)
v1: Removing PWL point (0.0004634,0)
v1: Removing PWL point (0.0004643,0)
v1: Removing PWL point (0.00046515,0)
v1: Removing PWL point (0.000466,0)
v1: Removing PWL point (0.00046685,0)
v1: Removing PWL point (0.0004676,3.3)
v1: Removing PWL point (0.00046775,0)
v1: Removing PWL point (0.00046845,3.3)
v1: Removing PWL point (0.0004686,0)
v1: Removing PWL point (0.0004693,3.3)
v1: Removing PWL point (0.00046945,0)
v1: Removing PWL point (0.00047015,3.3)
v1: Removing PWL point (0.0004703,0)
v1: Removing PWL point (0.000471,3.3)
v1: Removing PWL point (0.0004712,0)
v1: Removing PWL point (0.00047185,3.3)
v1: Removing PWL point (0.00047205,0)
v1: Removing PWL point (0.0004727,3.3)
v1: Removing PWL point (0.0004729,0)
v1: Removing PWL point (0.00047355,3.3)
v1: Removing PWL point (0.00047375,0)
v1: Removing PWL point (0.0004744,3.3)
v1: Removing PWL point (0.00047465,0)
v1: Removing PWL point (0.00047525,3.3)
v1: Removing PWL point (0.0004755,0)
v1: Removing PWL point (0.0004761,3.3)
v1: Removing PWL point (0.00047635,0)
v1: Removing PWL point (0.00047695,3.3)
v1: Removing PWL point (0.00047725,0)
v1: Removing PWL point (0.0004778,3.3)
v1: Removing PWL point (0.0004781,0)
v1: Removing PWL point (0.00047865,3.3)
v1: Removing PWL point (0.00047895,0)
v1: Removing PWL point (0.0004795,3.3)
v1: Removing PWL point (0.0004798,0)
v1: Removing PWL point (0.00048035,3.3)
v1: Removing PWL point (0.0004807,0)
v1: Removing PWL point (0.0004812,3.3)
v1: Removing PWL point (0.00048155,0)
v1: Removing PWL point (0.00048205,3.3)
v1: Removing PWL point (0.0004824,0)
v1: Removing PWL point (0.0004829,3.3)
v1: Removing PWL point (0.00048325,0)
v1: Removing PWL point (0.00048375,3.3)
v1: Removing PWL point (0.00048415,0)
v1: Removing PWL point (0.0004846,3.3)
v1: Removing PWL point (0.000485,0)
v1: Removing PWL point (0.00048545,3.3)
v1: Removing PWL point (0.00048585,0)
v1: Removing PWL point (0.0004863,3.3)
v1: Removing PWL point (0.0004867,0)
v1: Removing PWL point (0.00048715,3.3)
v1: Removing PWL point (0.0004876,0)
v1: Removing PWL point (0.000488,3.3)
v1: Removing PWL point (0.00048845,0)
v1: Removing PWL point (0.00048885,3.3)
v1: Removing PWL point (0.0004893,0)
v1: Removing PWL point (0.0004897,3.3)
v1: Removing PWL point (0.0004902,0)
v1: Removing PWL point (0.00049055,3.3)
v1: Removing PWL point (0.00049105,0)
v1: Removing PWL point (0.0004914,3.3)
v1: Removing PWL point (0.0004919,0)
v1: Removing PWL point (0.00049225,3.3)
v1: Removing PWL point (0.00049275,0)
v1: Removing PWL point (0.0004931,3.3)
v1: Removing PWL point (0.00049365,0)
v1: Removing PWL point (0.00049395,3.3)
v1: Removing PWL point (0.0004945,0)
v1: Removing PWL point (0.0004948,3.3)
v1: Removing PWL point (0.00049535,0)
v1: Removing PWL point (0.00049565,3.3)
v1: Removing PWL point (0.0004962,0)
v1: Removing PWL point (0.0004965,3.3)
v1: Removing PWL point (0.0004971,0)
v1: Removing PWL point (0.00049735,3.3)
v1: Removing PWL point (0.00049795,0)
v1: Removing PWL point (0.0004982,3.3)
v1: Removing PWL point (0.0004988,0)
v1: Removing PWL point (0.00049905,3.3)
v1: Removing PWL point (0.00049965,0)
v1: Removing PWL point (0.0004999,3.3)
v1: Removing PWL point (0.00050055,0)
v1: Removing PWL point (0.00050075,3.3)
v1: Removing PWL point (0.0005014,0)
v1: Removing PWL point (0.0005016,3.3)
v1: Removing PWL point (0.00050225,0)
v1: Removing PWL point (0.00050245,3.3)
v1: Removing PWL point (0.00050315,0)
v1: Removing PWL point (0.0005033,3.3)
v1: Removing PWL point (0.000504,0)
v1: Removing PWL point (0.00050415,3.3)
v1: Removing PWL point (0.00050485,0)
v1: Removing PWL point (0.000505,3.3)
v1: Removing PWL point (0.0005057,0)
v1: Removing PWL point (0.00050585,3.3)
v1: Removing PWL point (0.0005067,3.3)
v1: Removing PWL point (0.00050755,3.3)
v1: Removing PWL point (0.0005084,3.3)
v1: Removing PWL point (0.00050925,3.3)
v1: Removing PWL point (0.0005101,3.3)
v1: Removing PWL point (0.00051095,3.3)
v1: Removing PWL point (0.0005118,3.3)
v1: Removing PWL point (0.00051205,0)
v1: Removing PWL point (0.0005129,0)
v1: Removing PWL point (0.00051375,0)
v1: Removing PWL point (0.0005146,0)
v1: Removing PWL point (0.0005155,0)
v1: Removing PWL point (0.00051635,0)
v1: Removing PWL point (0.0005172,0)
v1: Removing PWL point (0.00051805,0)
v1: Removing PWL point (0.0005188,3.3)
v1: Removing PWL point (0.00051895,0)
v1: Removing PWL point (0.00051965,3.3)
v1: Removing PWL point (0.0005198,0)
v1: Removing PWL point (0.0005205,3.3)
v1: Removing PWL point (0.00052065,0)
v1: Removing PWL point (0.00052135,3.3)
v1: Removing PWL point (0.0005215,0)
v1: Removing PWL point (0.0005222,3.3)
v1: Removing PWL point (0.0005224,0)
v1: Removing PWL point (0.00052305,3.3)
v1: Removing PWL point (0.00052325,0)
v1: Removing PWL point (0.0005239,3.3)
v1: Removing PWL point (0.0005241,0)
v1: Removing PWL point (0.00052475,3.3)
v1: Removing PWL point (0.00052495,0)
v1: Removing PWL point (0.0005256,3.3)
v1: Removing PWL point (0.00052585,0)
v1: Removing PWL point (0.00052645,3.3)
v1: Removing PWL point (0.0005267,0)
v1: Removing PWL point (0.0005273,3.3)
v1: Removing PWL point (0.00052755,0)
v1: Removing PWL point (0.00052815,3.3)
v1: Removing PWL point (0.00052845,0)
v1: Removing PWL point (0.000529,3.3)
v1: Removing PWL point (0.0005293,0)
v1: Removing PWL point (0.00052985,3.3)
v1: Removing PWL point (0.00053015,0)
v1: Removing PWL point (0.0005307,3.3)
v1: Removing PWL point (0.000531,0)
v1: Removing PWL point (0.00053155,3.3)
v1: Removing PWL point (0.0005319,0)
v1: Removing PWL point (0.0005324,3.3)
v1: Removing PWL point (0.00053275,0)
v1: Removing PWL point (0.00053325,3.3)
v1: Removing PWL point (0.0005336,0)
v1: Removing PWL point (0.0005341,3.3)
v1: Removing PWL point (0.00053445,0)
v1: Removing PWL point (0.00053495,3.3)
v1: Removing PWL point (0.00053535,0)
v1: Removing PWL point (0.0005358,3.3)
v1: Removing PWL point (0.0005362,0)
v1: Removing PWL point (0.00053665,3.3)
v1: Removing PWL point (0.00053705,0)
v1: Removing PWL point (0.0005375,3.3)
v1: Removing PWL point (0.0005379,0)
v1: Removing PWL point (0.00053835,3.3)
v1: Removing PWL point (0.0005388,0)
v1: Removing PWL point (0.0005392,3.3)
v1: Removing PWL point (0.00053965,0)
v1: Removing PWL point (0.00054005,3.3)
v1: Removing PWL point (0.0005405,0)
v1: Removing PWL point (0.0005409,3.3)
v1: Removing PWL point (0.0005414,0)
v1: Removing PWL point (0.00054175,3.3)
v1: Removing PWL point (0.00054225,0)
v1: Removing PWL point (0.0005426,3.3)
v1: Removing PWL point (0.0005431,0)
v1: Removing PWL point (0.00054345,3.3)
v1: Removing PWL point (0.00054395,0)
v1: Removing PWL point (0.0005443,3.3)
v1: Removing PWL point (0.00054485,0)
v1: Removing PWL point (0.00054515,3.3)
v1: Removing PWL point (0.0005457,0)
v1: Removing PWL point (0.000546,3.3)
v1: Removing PWL point (0.00054655,0)
v1: Removing PWL point (0.00054685,3.3)
v1: Removing PWL point (0.0005474,0)
v1: Removing PWL point (0.0005477,3.3)
v1: Removing PWL point (0.0005483,0)
v1: Removing PWL point (0.00054855,3.3)
v1: Removing PWL point (0.00054915,0)
v1: Removing PWL point (0.0005494,3.3)
v1: Removing PWL point (0.00055,0)
v1: Removing PWL point (0.00055025,3.3)
v1: Removing PWL point (0.00055085,0)
v1: Removing PWL point (0.0005511,3.3)
v1: Removing PWL point (0.00055175,0)
v1: Removing PWL point (0.00055195,3.3)
v1: Removing PWL point (0.0005526,0)
v1: Removing PWL point (0.0005528,3.3)
v1: Removing PWL point (0.00055345,0)
v1: Removing PWL point (0.00055365,3.3)
v1: Removing PWL point (0.00055435,0)
v1: Removing PWL point (0.0005545,3.3)
v1: Removing PWL point (0.0005552,0)
v1: Removing PWL point (0.00055535,3.3)
v1: Removing PWL point (0.00055605,0)
v1: Removing PWL point (0.0005562,3.3)
v1: Removing PWL point (0.0005569,0)
v1: Removing PWL point (0.00055705,3.3)
v1: Removing PWL point (0.0005579,3.3)
v1: Removing PWL point (0.00055875,3.3)
v1: Removing PWL point (0.0005596,3.3)
v1: Removing PWL point (0.00056045,3.3)
v1: Removing PWL point (0.0005613,3.3)
v1: Removing PWL point (0.00056215,3.3)
v1: Removing PWL point (0.000563,3.3)
v1: Removing PWL point (0.00056325,0)
v1: Removing PWL point (0.0005641,0)
v1: Removing PWL point (0.00056495,0)
v1: Removing PWL point (0.0005658,0)
v1: Removing PWL point (0.0005667,0)
v1: Removing PWL point (0.00056755,0)
v1: Removing PWL point (0.0005684,0)
v1: Removing PWL point (0.00056925,0)
v1: Removing PWL point (0.00057,3.3)
v1: Removing PWL point (0.00057015,0)
v1: Removing PWL point (0.00057085,3.3)
v1: Removing PWL point (0.000571,0)
v1: Removing PWL point (0.0005717,3.3)
v1: Removing PWL point (0.00057185,0)
v1: Removing PWL point (0.00057255,3.3)
v1: Removing PWL point (0.0005727,0)
v1: Removing PWL point (0.0005734,3.3)
v1: Removing PWL point (0.0005736,0)
v1: Removing PWL point (0.00057425,3.3)
v1: Removing PWL point (0.00057445,0)
v1: Removing PWL point (0.0005751,3.3)
v1: Removing PWL point (0.0005753,0)
v1: Removing PWL point (0.00057595,3.3)
v1: Removing PWL point (0.00057615,0)
v1: Removing PWL point (0.0005768,3.3)
v1: Removing PWL point (0.00057705,0)
v1: Removing PWL point (0.00057765,3.3)
v1: Removing PWL point (0.0005779,0)
v1: Removing PWL point (0.0005785,3.3)
v1: Removing PWL point (0.00057875,0)
v1: Removing PWL point (0.00057935,3.3)
v1: Removing PWL point (0.00057965,0)
v1: Removing PWL point (0.0005802,3.3)
v1: Removing PWL point (0.0005805,0)
v1: Removing PWL point (0.00058105,3.3)
v1: Removing PWL point (0.00058135,0)
v1: Removing PWL point (0.0005819,3.3)
v1: Removing PWL point (0.0005822,0)
v1: Removing PWL point (0.00058275,3.3)
v1: Removing PWL point (0.0005831,0)
v1: Removing PWL point (0.0005836,3.3)
v1: Removing PWL point (0.00058395,0)
v1: Removing PWL point (0.00058445,3.3)
v1: Removing PWL point (0.0005848,0)
v1: Removing PWL point (0.0005853,3.3)
v1: Removing PWL point (0.00058565,0)
v1: Removing PWL point (0.00058615,3.3)
v1: Removing PWL point (0.00058655,0)
v1: Removing PWL point (0.000587,3.3)
v1: Removing PWL point (0.0005874,0)
v1: Removing PWL point (0.00058785,3.3)
v1: Removing PWL point (0.00058825,0)
v1: Removing PWL point (0.0005887,3.3)
v1: Removing PWL point (0.0005891,0)
v1: Removing PWL point (0.00058955,3.3)
v1: Removing PWL point (0.00059,0)
v1: Removing PWL point (0.0005904,3.3)
v1: Removing PWL point (0.00059085,0)
v1: Removing PWL point (0.00059125,3.3)
v1: Removing PWL point (0.0005917,0)
v1: Removing PWL point (0.0005921,3.3)
v1: Removing PWL point (0.0005926,0)
v1: Removing PWL point (0.00059295,3.3)
v1: Removing PWL point (0.00059345,0)
v1: Removing PWL point (0.0005938,3.3)
v1: Removing PWL point (0.0005943,0)
v1: Removing PWL point (0.00059465,3.3)
v1: Removing PWL point (0.00059515,0)
v1: Removing PWL point (0.0005955,3.3)
v1: Removing PWL point (0.00059605,0)
v1: Removing PWL point (0.00059635,3.3)
v1: Removing PWL point (0.0005969,0)
v1: Removing PWL point (0.0005972,3.3)
v1: Removing PWL point (0.00059775,0)
v1: Removing PWL point (0.00059805,3.3)
v1: Removing PWL point (0.0005986,0)
v1: Removing PWL point (0.0005989,3.3)
v1: Removing PWL point (0.0005995,0)
v1: Removing PWL point (0.00059975,3.3)
v1: Removing PWL point (0.00060035,0)
v1: Removing PWL point (0.0006006,3.3)
v1: Removing PWL point (0.0006012,0)
v1: Removing PWL point (0.00060145,3.3)
v1: Removing PWL point (0.00060205,0)
v1: Removing PWL point (0.0006023,3.3)
v1: Removing PWL point (0.00060295,0)
v1: Removing PWL point (0.00060315,3.3)
v1: Removing PWL point (0.0006038,0)
v1: Removing PWL point (0.000604,3.3)
v1: Removing PWL point (0.00060465,0)
v1: Removing PWL point (0.00060485,3.3)
v1: Removing PWL point (0.00060555,0)
v1: Removing PWL point (0.0006057,3.3)
v1: Removing PWL point (0.0006064,0)
v1: Removing PWL point (0.00060655,3.3)
v1: Removing PWL point (0.00060725,0)
v1: Removing PWL point (0.0006074,3.3)
v1: Removing PWL point (0.0006081,0)
v1: Removing PWL point (0.00060825,3.3)
v1: Removing PWL point (0.0006091,3.3)
v1: Removing PWL point (0.00060995,3.3)
v1: Removing PWL point (0.0006108,3.3)
v1: Removing PWL point (0.00061165,3.3)
v1: Removing PWL point (0.0006125,3.3)
v1: Removing PWL point (0.00061335,3.3)
v1: Removing PWL point (0.0006142,3.3)
v1: Removing PWL point (0.00061445,0)
v1: Removing PWL point (0.0006153,0)
v1: Removing PWL point (0.00061615,0)
v1: Removing PWL point (0.000617,0)
v1: Removing PWL point (0.0006179,0)
v1: Removing PWL point (0.00061875,0)
v1: Removing PWL point (0.0006196,0)
v1: Removing PWL point (0.00062045,0)
v1: Removing PWL point (0.0006212,3.3)
v1: Removing PWL point (0.00062135,0)
v1: Removing PWL point (0.00062205,3.3)
v1: Removing PWL point (0.0006222,0)
v1: Removing PWL point (0.0006229,3.3)
v1: Removing PWL point (0.00062305,0)
v1: Removing PWL point (0.00062375,3.3)
v1: Removing PWL point (0.0006239,0)
v1: Removing PWL point (0.0006246,3.3)
v1: Removing PWL point (0.0006248,0)
v1: Removing PWL point (0.00062545,3.3)
v1: Removing PWL point (0.00062565,0)
v1: Removing PWL point (0.0006263,3.3)
v1: Removing PWL point (0.0006265,0)
v1: Removing PWL point (0.00062715,3.3)
v1: Removing PWL point (0.00062735,0)
v1: Removing PWL point (0.000628,3.3)
v1: Removing PWL point (0.00062825,0)
v1: Removing PWL point (0.00062885,3.3)
v1: Removing PWL point (0.0006291,0)
v1: Removing PWL point (0.0006297,3.3)
v1: Removing PWL point (0.00062995,0)
v1: Removing PWL point (0.00063055,3.3)
v1: Removing PWL point (0.00063085,0)
v1: Removing PWL point (0.0006314,3.3)
v1: Removing PWL point (0.0006317,0)
v1: Removing PWL point (0.00063225,3.3)
v1: Removing PWL point (0.00063255,0)
v1: Removing PWL point (0.0006331,3.3)
v1: Removing PWL point (0.0006334,0)
v1: Removing PWL point (0.00063395,3.3)
v1: Removing PWL point (0.0006343,0)
v1: Removing PWL point (0.0006348,3.3)
v1: Removing PWL point (0.00063515,0)
v1: Removing PWL point (0.00063565,3.3)
v1: Removing PWL point (0.000636,0)
v1: Removing PWL point (0.0006365,3.3)
v1: Removing PWL point (0.00063685,0)
v1: Removing PWL point (0.00063735,3.3)
v1: Removing PWL point (0.00063775,0)
v1: Removing PWL point (0.0006382,3.3)
v1: Removing PWL point (0.0006386,0)
v1: Removing PWL point (0.00063905,3.3)
v1: Removing PWL point (0.00063945,0)
v1: Removing PWL point (0.0006399,3.3)
v1: Removing PWL point (0.0006403,0)
v1: Removing PWL point (0.00064075,3.3)
v1: Removing PWL point (0.0006412,0)
v1: Removing PWL point (0.0006416,3.3)
v1: Removing PWL point (0.00064205,0)
v1: Removing PWL point (0.00064245,3.3)
v1: Removing PWL point (0.0006429,0)
v1: Removing PWL point (0.0006433,3.3)
v1: Removing PWL point (0.0006438,0)
v1: Removing PWL point (0.00064415,3.3)
v1: Removing PWL point (0.00064465,0)
v1: Removing PWL point (0.000645,3.3)
v1: Removing PWL point (0.0006455,0)
v1: Removing PWL point (0.00064585,3.3)
v1: Removing PWL point (0.00064635,0)
v1: Removing PWL point (0.0006467,3.3)
v1: Removing PWL point (0.00064725,0)
v1: Removing PWL point (0.00064755,3.3)
v1: Removing PWL point (0.0006481,0)
v1: Removing PWL point (0.0006484,3.3)
v1: Removing PWL point (0.00064895,0)
v1: Removing PWL point (0.00064925,3.3)
v1: Removing PWL point (0.0006498,0)
v1: Removing PWL point (0.0006501,3.3)
v1: Removing PWL point (0.0006507,0)
v1: Removing PWL point (0.00065095,3.3)
v1: Removing PWL point (0.00065155,0)
v1: Removing PWL point (0.0006518,3.3)
v1: Removing PWL point (0.0006524,0)
v1: Removing PWL point (0.00065265,3.3)
v1: Removing PWL point (0.00065325,0)
v1: Removing PWL point (0.0006535,3.3)
v1: Removing PWL point (0.00065415,0)
v1: Removing PWL point (0.00065435,3.3)
v1: Removing PWL point (0.000655,0)
v1: Removing PWL point (0.0006552,3.3)
v1: Removing PWL point (0.00065585,0)
v1: Removing PWL point (0.00065605,3.3)
v1: Removing PWL point (0.00065675,0)
v1: Removing PWL point (0.0006569,3.3)
v1: Removing PWL point (0.0006576,0)
v1: Removing PWL point (0.00065775,3.3)
v1: Removing PWL point (0.00065845,0)
v1: Removing PWL point (0.0006586,3.3)
v1: Removing PWL point (0.0006593,0)
v1: Removing PWL point (0.00065945,3.3)
v1: Removing PWL point (0.0006603,3.3)
v1: Removing PWL point (0.00066115,3.3)
v1: Removing PWL point (0.000662,3.3)
v1: Removing PWL point (0.00066285,3.3)
v1: Removing PWL point (0.0006637,3.3)
v1: Removing PWL point (0.00066455,3.3)
v1: Removing PWL point (0.0006654,3.3)
v1: Removing PWL point (0.00066565,0)
v1: Removing PWL point (0.0006665,0)
v1: Removing PWL point (0.00066735,0)
v1: Removing PWL point (0.0006682,0)
v1: Removing PWL point (0.0006691,0)
v1: Removing PWL point (0.00066995,0)
v1: Removing PWL point (0.0006708,0)
v1: Removing PWL point (0.00067165,0)
v1: Removing PWL point (0.0006724,3.3)
v1: Removing PWL point (0.00067255,0)
v1: Removing PWL point (0.00067325,3.3)
v1: Removing PWL point (0.0006734,0)
v1: Removing PWL point (0.0006741,3.3)
v1: Removing PWL point (0.00067425,0)
v1: Removing PWL point (0.00067495,3.3)
v1: Removing PWL point (0.0006751,0)
v1: Removing PWL point (0.0006758,3.3)
v1: Removing PWL point (0.000676,0)
v1: Removing PWL point (0.00067665,3.3)
v1: Removing PWL point (0.00067685,0)
v1: Removing PWL point (0.0006775,3.3)
v1: Removing PWL point (0.0006777,0)
v1: Removing PWL point (0.00067835,3.3)
v1: Removing PWL point (0.00067855,0)
v1: Removing PWL point (0.0006792,3.3)
v1: Removing PWL point (0.00067945,0)
v1: Removing PWL point (0.00068005,3.3)
v1: Removing PWL point (0.0006803,0)
v1: Removing PWL point (0.0006809,3.3)
v1: Removing PWL point (0.00068115,0)
v1: Removing PWL point (0.00068175,3.3)
v1: Removing PWL point (0.00068205,0)
v1: Removing PWL point (0.0006826,3.3)
v1: Removing PWL point (0.0006829,0)
v1: Removing PWL point (0.00068345,3.3)
v1: Removing PWL point (0.00068375,0)
v1: Removing PWL point (0.0006843,3.3)
v1: Removing PWL point (0.0006846,0)
v1: Removing PWL point (0.00068515,3.3)
v1: Removing PWL point (0.0006855,0)
v1: Removing PWL point (0.000686,3.3)
v1: Removing PWL point (0.00068635,0)
v1: Removing PWL point (0.00068685,3.3)
v1: Removing PWL point (0.0006872,0)
v1: Removing PWL point (0.0006877,3.3)
v1: Removing PWL point (0.00068805,0)
v1: Removing PWL point (0.00068855,3.3)
v1: Removing PWL point (0.00068895,0)
v1: Removing PWL point (0.0006894,3.3)
v1: Removing PWL point (0.0006898,0)
v1: Removing PWL point (0.00069025,3.3)
v1: Removing PWL point (0.00069065,0)
v1: Removing PWL point (0.0006911,3.3)
v1: Removing PWL point (0.0006915,0)
v1: Removing PWL point (0.00069195,3.3)
v1: Removing PWL point (0.0006924,0)
v1: Removing PWL point (0.0006928,3.3)
v1: Removing PWL point (0.00069325,0)
v1: Removing PWL point (0.00069365,3.3)
v1: Removing PWL point (0.0006941,0)
v1: Removing PWL point (0.0006945,3.3)
v1: Removing PWL point (0.000695,0)
v1: Removing PWL point (0.00069535,3.3)
v1: Removing PWL point (0.00069585,0)
v1: Removing PWL point (0.0006962,3.3)
v1: Removing PWL point (0.0006967,0)
v1: Removing PWL point (0.00069705,3.3)
v1: Removing PWL point (0.00069755,0)
v1: Removing PWL point (0.0006979,3.3)
v1: Removing PWL point (0.00069845,0)
v1: Removing PWL point (0.00069875,3.3)
v1: Removing PWL point (0.0006993,0)
v1: Removing PWL point (0.0006996,3.3)
v1: Removing PWL point (0.00070015,0)
v1: Removing PWL point (0.00070045,3.3)
v1: Removing PWL point (0.000701,0)
v1: Removing PWL point (0.0007013,3.3)
v1: Removing PWL point (0.0007019,0)
v1: Removing PWL point (0.00070215,3.3)
v1: Removing PWL point (0.00070275,0)
v1: Removing PWL point (0.000703,3.3)
v1: Removing PWL point (0.0007036,0)
v1: Removing PWL point (0.00070385,3.3)
v1: Removing PWL point (0.00070445,0)
v1: Removing PWL point (0.0007047,3.3)
v1: Removing PWL point (0.00070535,0)
v1: Removing PWL point (0.00070555,3.3)
v1: Removing PWL point (0.0007062,0)
v1: Removing PWL point (0.0007064,3.3)
v1: Removing PWL point (0.00070705,0)
v1: Removing PWL point (0.00070725,3.3)
v1: Removing PWL point (0.00070795,0)
v1: Removing PWL point (0.0007081,3.3)
v1: Removing PWL point (0.0007088,0)
v1: Removing PWL point (0.00070895,3.3)
v1: Removing PWL point (0.00070965,0)
v1: Removing PWL point (0.0007098,3.3)
v1: Removing PWL point (0.0007105,0)
v1: Removing PWL point (0.00071065,3.3)
v1: Removing PWL point (0.0007115,3.3)
v1: Removing PWL point (0.00071235,3.3)
v1: Removing PWL point (0.0007132,3.3)
v1: Removing PWL point (0.00071405,3.3)
v1: Removing PWL point (0.0007149,3.3)
v1: Removing PWL point (0.00071575,3.3)
v1: Removing PWL point (0.0007166,3.3)
v1: Removing PWL point (0.00071685,0)
v1: Removing PWL point (0.0007177,0)
v1: Removing PWL point (0.00071855,0)
v1: Removing PWL point (0.0007194,0)
v1: Removing PWL point (0.0007203,0)
v1: Removing PWL point (0.00072115,0)
v1: Removing PWL point (0.000722,0)
v1: Removing PWL point (0.00072285,0)
v1: Removing PWL point (0.0007236,3.3)
v1: Removing PWL point (0.00072375,0)
v1: Removing PWL point (0.00072445,3.3)
v1: Removing PWL point (0.0007246,0)
v1: Removing PWL point (0.0007253,3.3)
v1: Removing PWL point (0.00072545,0)
v1: Removing PWL point (0.00072615,3.3)
v1: Removing PWL point (0.0007263,0)
v1: Removing PWL point (0.000727,3.3)
v1: Removing PWL point (0.0007272,0)
v1: Removing PWL point (0.00072785,3.3)
v1: Removing PWL point (0.00072805,0)
v1: Removing PWL point (0.0007287,3.3)
v1: Removing PWL point (0.0007289,0)
v1: Removing PWL point (0.00072955,3.3)
v1: Removing PWL point (0.00072975,0)
v1: Removing PWL point (0.0007304,3.3)
v1: Removing PWL point (0.00073065,0)
v1: Removing PWL point (0.00073125,3.3)
v1: Removing PWL point (0.0007315,0)
v1: Removing PWL point (0.0007321,3.3)
v1: Removing PWL point (0.00073235,0)
v1: Removing PWL point (0.00073295,3.3)
v1: Removing PWL point (0.00073325,0)
v1: Removing PWL point (0.0007338,3.3)
v1: Removing PWL point (0.0007341,0)
v1: Removing PWL point (0.00073465,3.3)
v1: Removing PWL point (0.00073495,0)
v1: Removing PWL point (0.0007355,3.3)
v1: Removing PWL point (0.0007358,0)
v1: Removing PWL point (0.00073635,3.3)
v1: Removing PWL point (0.0007367,0)
v1: Removing PWL point (0.0007372,3.3)
v1: Removing PWL point (0.00073755,0)
v1: Removing PWL point (0.00073805,3.3)
v1: Removing PWL point (0.0007384,0)
v1: Removing PWL point (0.0007389,3.3)
v1: Removing PWL point (0.00073925,0)
v1: Removing PWL point (0.00073975,3.3)
v1: Removing PWL point (0.00074015,0)
v1: Removing PWL point (0.0007406,3.3)
v1: Removing PWL point (0.000741,0)
v1: Removing PWL point (0.00074145,3.3)
v1: Removing PWL point (0.00074185,0)
v1: Removing PWL point (0.0007423,3.3)
v1: Removing PWL point (0.0007427,0)
v1: Removing PWL point (0.00074315,3.3)
v1: Removing PWL point (0.0007436,0)
v1: Removing PWL point (0.000744,3.3)
v1: Removing PWL point (0.00074445,0)
v1: Removing PWL point (0.00074485,3.3)
v1: Removing PWL point (0.0007453,0)
v1: Removing PWL point (0.0007457,3.3)
v1: Removing PWL point (0.0007462,0)
v1: Removing PWL point (0.00074655,3.3)
v1: Removing PWL point (0.00074705,0)
v1: Removing PWL point (0.0007474,3.3)
v1: Removing PWL point (0.0007479,0)
v1: Removing PWL point (0.00074825,3.3)
v1: Removing PWL point (0.00074875,0)
v1: Removing PWL point (0.0007491,3.3)
v1: Removing PWL point (0.00074965,0)
v1: Removing PWL point (0.00074995,3.3)
v1: Removing PWL point (0.0007505,0)
v1: Removing PWL point (0.0007508,3.3)
v1: Removing PWL point (0.00075135,0)
v1: Removing PWL point (0.00075165,3.3)
v1: Removing PWL point (0.0007522,0)
v1: Removing PWL point (0.0007525,3.3)
v1: Removing PWL point (0.0007531,0)
v1: Removing PWL point (0.00075335,3.3)
v1: Removing PWL point (0.00075395,0)
v1: Removing PWL point (0.0007542,3.3)
v1: Removing PWL point (0.0007548,0)
v1: Removing PWL point (0.00075505,3.3)
v1: Removing PWL point (0.00075565,0)
v1: Removing PWL point (0.0007559,3.3)
v1: Removing PWL point (0.00075655,0)
v1: Removing PWL point (0.00075675,3.3)
v1: Removing PWL point (0.0007574,0)
v1: Removing PWL point (0.0007576,3.3)
v1: Removing PWL point (0.00075825,0)
v1: Removing PWL point (0.00075845,3.3)
v1: Removing PWL point (0.00075915,0)
v1: Removing PWL point (0.0007593,3.3)
v1: Removing PWL point (0.00076,0)
v1: Removing PWL point (0.00076015,3.3)
v1: Removing PWL point (0.00076085,0)
v1: Removing PWL point (0.000761,3.3)
v1: Removing PWL point (0.0007617,0)
v1: Removing PWL point (0.00076185,3.3)
v1: Removing PWL point (0.0007627,3.3)
v1: Removing PWL point (0.00076355,3.3)
v1: Removing PWL point (0.0007644,3.3)
v1: Removing PWL point (0.00076525,3.3)
v1: Removing PWL point (0.0007661,3.3)
v1: Removing PWL point (0.00076695,3.3)
v1: Removing PWL point (0.0007678,3.3)
v2: Removing PWL point (1e-07,0)
v2: Removing PWL point (1.8e-06,0)
v2: Removing PWL point (3.4e-06,3.3)
v2: Removing PWL point (3.7e-06,0)
v2: Removing PWL point (5.1e-06,3.3)
v2: Removing PWL point (5.5e-06,0)
v2: Removing PWL point (6.8e-06,3.3)
v2: Removing PWL point (7.3e-06,0)
v2: Removing PWL point (8.5e-06,3.3)
v2: Removing PWL point (9.1e-06,0)
v2: Removing PWL point (1.02e-05,3.3)
v2: Removing PWL point (1.09e-05,0)
v2: Removing PWL point (1.19e-05,3.3)
v2: Removing PWL point (1.27e-05,0)
v2: Removing PWL point (1.36e-05,3.3)
v2: Removing PWL point (1.45e-05,0)
v2: Removing PWL point (1.53e-05,3.3)
v2: Removing PWL point (1.63e-05,0)
v2: Removing PWL point (1.7e-05,3.3)
v2: Removing PWL point (1.81e-05,0)
v2: Removing PWL point (1.87e-05,3.3)
v2: Removing PWL point (1.99e-05,0)
v2: Removing PWL point (2.04e-05,3.3)
v2: Removing PWL point (2.17e-05,0)
v2: Removing PWL point (2.21e-05,3.3)
v2: Removing PWL point (2.35e-05,0)
v2: Removing PWL point (2.38e-05,3.3)
v2: Removing PWL point (2.55e-05,3.3)
v2: Removing PWL point (2.72e-05,3.3)
v2: Removing PWL point (2.89e-05,3.3)
v2: Removing PWL point (3.03e-05,0)
v2: Removing PWL point (3.06e-05,3.3)
v2: Removing PWL point (3.19e-05,0)
v2: Removing PWL point (3.23e-05,3.3)
v2: Removing PWL point (3.35e-05,0)
v2: Removing PWL point (3.4e-05,3.3)
v2: Removing PWL point (3.51e-05,0)
v2: Removing PWL point (3.57e-05,3.3)
v2: Removing PWL point (3.67e-05,0)
v2: Removing PWL point (3.74e-05,3.3)
v2: Removing PWL point (3.83e-05,0)
v2: Removing PWL point (3.91e-05,3.3)
v2: Removing PWL point (3.99e-05,0)
v2: Removing PWL point (4.08e-05,3.3)
v2: Removing PWL point (4.15e-05,0)
v2: Removing PWL point (4.25e-05,3.3)
v2: Removing PWL point (4.31e-05,0)
v2: Removing PWL point (4.42e-05,3.3)
v2: Removing PWL point (4.47e-05,0)
v2: Removing PWL point (4.59e-05,3.3)
v2: Removing PWL point (4.63e-05,0)
v2: Removing PWL point (4.76e-05,3.3)
v2: Removing PWL point (4.79e-05,0)
v2: Removing PWL point (4.95e-05,0)
v2: Removing PWL point (5.11e-05,0)
v2: Removing PWL point (5.3e-05,0)
v2: Removing PWL point (5.46e-05,3.3)
v2: Removing PWL point (5.49e-05,0)
v2: Removing PWL point (5.63e-05,3.3)
v2: Removing PWL point (5.67e-05,0)
v2: Removing PWL point (5.8e-05,3.3)
v2: Removing PWL point (5.85e-05,0)
v2: Removing PWL point (5.97e-05,3.3)
v2: Removing PWL point (6.03e-05,0)
v2: Removing PWL point (6.14e-05,3.3)
v2: Removing PWL point (6.21e-05,0)
v2: Removing PWL point (6.31e-05,3.3)
v2: Removing PWL point (6.39e-05,0)
v2: Removing PWL point (6.48e-05,3.3)
v2: Removing PWL point (6.57e-05,0)
v2: Removing PWL point (6.65e-05,3.3)
v2: Removing PWL point (6.75e-05,0)
v2: Removing PWL point (6.82e-05,3.3)
v2: Removing PWL point (6.93e-05,0)
v2: Removing PWL point (6.99e-05,3.3)
v2: Removing PWL point (7.11e-05,0)
v2: Removing PWL point (7.16e-05,3.3)
v2: Removing PWL point (7.29e-05,0)
v2: Removing PWL point (7.33e-05,3.3)
v2: Removing PWL point (7.47e-05,0)
v2: Removing PWL point (7.5e-05,3.3)
v2: Removing PWL point (7.67e-05,3.3)
v2: Removing PWL point (7.84e-05,3.3)
v2: Removing PWL point (8.01e-05,3.3)
v2: Removing PWL point (8.15e-05,0)
v2: Removing PWL point (8.18e-05,3.3)
v2: Removing PWL point (8.31e-05,0)
v2: Removing PWL point (8.35e-05,3.3)
v2: Removing PWL point (8.47e-05,0)
v2: Removing PWL point (8.52e-05,3.3)
v2: Removing PWL point (8.63e-05,0)
v2: Removing PWL point (8.69e-05,3.3)
v2: Removing PWL point (8.79e-05,0)
v2: Removing PWL point (8.86e-05,3.3)
v2: Removing PWL point (8.95e-05,0)
v2: Removing PWL point (9.03e-05,3.3)
v2: Removing PWL point (9.11e-05,0)
v2: Removing PWL point (9.2e-05,3.3)
v2: Removing PWL point (9.27e-05,0)
v2: Removing PWL point (9.37e-05,3.3)
v2: Removing PWL point (9.43e-05,0)
v2: Removing PWL point (9.54e-05,3.3)
v2: Removing PWL point (9.59e-05,0)
v2: Removing PWL point (9.71e-05,3.3)
v2: Removing PWL point (9.75e-05,0)
v2: Removing PWL point (9.88e-05,3.3)
v2: Removing PWL point (9.91e-05,0)
v2: Removing PWL point (0.0001007,0)
v2: Removing PWL point (0.0001023,0)
v2: Removing PWL point (0.0001042,0)
v2: Removing PWL point (0.0001058,3.3)
v2: Removing PWL point (0.0001061,0)
v2: Removing PWL point (0.0001075,3.3)
v2: Removing PWL point (0.0001079,0)
v2: Removing PWL point (0.0001092,3.3)
v2: Removing PWL point (0.0001097,0)
v2: Removing PWL point (0.0001109,3.3)
v2: Removing PWL point (0.0001115,0)
v2: Removing PWL point (0.0001126,3.3)
v2: Removing PWL point (0.0001133,0)
v2: Removing PWL point (0.0001143,3.3)
v2: Removing PWL point (0.0001151,0)
v2: Removing PWL point (0.000116,3.3)
v2: Removing PWL point (0.0001169,0)
v2: Removing PWL point (0.0001177,3.3)
v2: Removing PWL point (0.0001187,0)
v2: Removing PWL point (0.0001194,3.3)
v2: Removing PWL point (0.0001205,0)
v2: Removing PWL point (0.0001211,3.3)
v2: Removing PWL point (0.0001223,0)
v2: Removing PWL point (0.0001228,3.3)
v2: Removing PWL point (0.0001241,0)
v2: Removing PWL point (0.0001245,3.3)
v2: Removing PWL point (0.0001259,0)
v2: Removing PWL point (0.0001262,3.3)
v2: Removing PWL point (0.0001279,3.3)
v2: Removing PWL point (0.0001296,3.3)
v2: Removing PWL point (0.0001313,3.3)
v2: Removing PWL point (0.0001327,0)
v2: Removing PWL point (0.000133,3.3)
v2: Removing PWL point (0.0001343,0)
v2: Removing PWL point (0.0001347,3.3)
v2: Removing PWL point (0.0001359,0)
v2: Removing PWL point (0.0001364,3.3)
v2: Removing PWL point (0.0001375,0)
v2: Removing PWL point (0.0001381,3.3)
v2: Removing PWL point (0.0001391,0)
v2: Removing PWL point (0.0001398,3.3)
v2: Removing PWL point (0.0001407,0)
v2: Removing PWL point (0.0001415,3.3)
v2: Removing PWL point (0.0001423,0)
v2: Removing PWL point (0.0001432,3.3)
v2: Removing PWL point (0.0001439,0)
v2: Removing PWL point (0.0001449,3.3)
v2: Removing PWL point (0.0001455,0)
v2: Removing PWL point (0.0001466,3.3)
v2: Removing PWL point (0.0001471,0)
v2: Removing PWL point (0.0001483,3.3)
v2: Removing PWL point (0.0001487,0)
v2: Removing PWL point (0.00015,3.3)
v2: Removing PWL point (0.0001503,0)
v2: Removing PWL point (0.0001519,0)
v2: Removing PWL point (0.0001535,0)
v2: Removing PWL point (0.0001554,0)
v2: Removing PWL point (0.000157,3.3)
v2: Removing PWL point (0.0001573,0)
v2: Removing PWL point (0.0001587,3.3)
v2: Removing PWL point (0.0001591,0)
v2: Removing PWL point (0.0001604,3.3)
v2: Removing PWL point (0.0001609,0)
v2: Removing PWL point (0.0001621,3.3)
v2: Removing PWL point (0.0001627,0)
v2: Removing PWL point (0.0001638,3.3)
v2: Removing PWL point (0.0001645,0)
v2: Removing PWL point (0.0001655,3.3)
v2: Removing PWL point (0.0001663,0)
v2: Removing PWL point (0.0001672,3.3)
v2: Removing PWL point (0.0001681,0)
v2: Removing PWL point (0.0001689,3.3)
v2: Removing PWL point (0.0001699,0)
v2: Removing PWL point (0.0001706,3.3)
v2: Removing PWL point (0.0001717,0)
v2: Removing PWL point (0.0001723,3.3)
v2: Removing PWL point (0.0001735,0)
v2: Removing PWL point (0.000174,3.3)
v2: Removing PWL point (0.0001753,0)
v2: Removing PWL point (0.0001757,3.3)
v2: Removing PWL point (0.0001771,0)
v2: Removing PWL point (0.0001774,3.3)
v2: Removing PWL point (0.0001791,3.3)
v2: Removing PWL point (0.0001808,3.3)
v2: Removing PWL point (0.0001825,3.3)
v2: Removing PWL point (0.0001839,0)
v2: Removing PWL point (0.0001842,3.3)
v2: Removing PWL point (0.0001855,0)
v2: Removing PWL point (0.0001859,3.3)
v2: Removing PWL point (0.0001871,0)
v2: Removing PWL point (0.0001876,3.3)
v2: Removing PWL point (0.0001887,0)
v2: Removing PWL point (0.0001893,3.3)
v2: Removing PWL point (0.0001903,0)
v2: Removing PWL point (0.000191,3.3)
v2: Removing PWL point (0.0001919,0)
v2: Removing PWL point (0.0001927,3.3)
v2: Removing PWL point (0.0001935,0)
v2: Removing PWL point (0.0001944,3.3)
v2: Removing PWL point (0.0001951,0)
v2: Removing PWL point (0.0001961,3.3)
v2: Removing PWL point (0.0001967,0)
v2: Removing PWL point (0.0001978,3.3)
v2: Removing PWL point (0.0001983,0)
v2: Removing PWL point (0.0001995,3.3)
v2: Removing PWL point (0.0001999,0)
v2: Removing PWL point (0.0002012,3.3)
v2: Removing PWL point (0.0002015,0)
v2: Removing PWL point (0.0002031,0)
v2: Removing PWL point (0.0002047,0)
v2: Removing PWL point (0.0002066,0)
v2: Removing PWL point (0.0002082,3.3)
v2: Removing PWL point (0.0002085,0)
v2: Removing PWL point (0.0002099,3.3)
v2: Removing PWL point (0.0002103,0)
v2: Removing PWL point (0.0002116,3.3)
v2: Removing PWL point (0.0002121,0)
v2: Removing PWL point (0.0002133,3.3)
v2: Removing PWL point (0.0002139,0)
v2: Removing PWL point (0.000215,3.3)
v2: Removing PWL point (0.0002157,0)
v2: Removing PWL point (0.0002167,3.3)
v2: Removing PWL point (0.0002175,0)
v2: Removing PWL point (0.0002184,3.3)
v2: Removing PWL point (0.0002193,0)
v2: Removing PWL point (0.0002201,3.3)
v2: Removing PWL point (0.0002211,0)
v2: Removing PWL point (0.0002218,3.3)
v2: Removing PWL point (0.0002229,0)
v2: Removing PWL point (0.0002235,3.3)
v2: Removing PWL point (0.0002247,0)
v2: Removing PWL point (0.0002252,3.3)
v2: Removing PWL point (0.0002265,0)
v2: Removing PWL point (0.0002269,3.3)
v2: Removing PWL point (0.0002283,0)
v2: Removing PWL point (0.0002286,3.3)
v2: Removing PWL point (0.0002303,3.3)
v2: Removing PWL point (0.000232,3.3)
v2: Removing PWL point (0.0002337,3.3)
v2: Removing PWL point (0.0002351,0)
v2: Removing PWL point (0.0002354,3.3)
v2: Removing PWL point (0.0002367,0)
v2: Removing PWL point (0.0002371,3.3)
v2: Removing PWL point (0.0002383,0)
v2: Removing PWL point (0.0002388,3.3)
v2: Removing PWL point (0.0002399,0)
v2: Removing PWL point (0.0002405,3.3)
v2: Removing PWL point (0.0002415,0)
v2: Removing PWL point (0.0002422,3.3)
v2: Removing PWL point (0.0002431,0)
v2: Removing PWL point (0.0002439,3.3)
v2: Removing PWL point (0.0002447,0)
v2: Removing PWL point (0.0002456,3.3)
v2: Removing PWL point (0.0002463,0)
v2: Removing PWL point (0.0002473,3.3)
v2: Removing PWL point (0.0002479,0)
v2: Removing PWL point (0.000249,3.3)
v2: Removing PWL point (0.0002495,0)
v2: Removing PWL point (0.0002507,3.3)
v2: Removing PWL point (0.0002511,0)
v2: Removing PWL point (0.0002524,3.3)
v2: Removing PWL point (0.0002527,0)
v2: Removing PWL point (0.0002543,0)
v2: Removing PWL point (0.0002559,0)
v2: Removing PWL point (0.0002578,0)
v2: Removing PWL point (0.0002594,3.3)
v2: Removing PWL point (0.0002597,0)
v2: Removing PWL point (0.0002611,3.3)
v2: Removing PWL point (0.0002615,0)
v2: Removing PWL point (0.0002628,3.3)
v2: Removing PWL point (0.0002633,0)
v2: Removing PWL point (0.0002645,3.3)
v2: Removing PWL point (0.0002651,0)
v2: Removing PWL point (0.0002662,3.3)
v2: Removing PWL point (0.0002669,0)
v2: Removing PWL point (0.0002679,3.3)
v2: Removing PWL point (0.0002687,0)
v2: Removing PWL point (0.0002696,3.3)
v2: Removing PWL point (0.0002705,0)
v2: Removing PWL point (0.0002713,3.3)
v2: Removing PWL point (0.0002723,0)
v2: Removing PWL point (0.000273,3.3)
v2: Removing PWL point (0.0002741,0)
v2: Removing PWL point (0.0002747,3.3)
v2: Removing PWL point (0.0002759,0)
v2: Removing PWL point (0.0002764,3.3)
v2: Removing PWL point (0.0002777,0)
v2: Removing PWL point (0.0002781,3.3)
v2: Removing PWL point (0.0002795,0)
v2: Removing PWL point (0.0002798,3.3)
v2: Removing PWL point (0.0002815,3.3)
v2: Removing PWL point (0.0002832,3.3)
v2: Removing PWL point (0.0002849,3.3)
v2: Removing PWL point (0.0002863,0)
v2: Removing PWL point (0.0002866,3.3)
v2: Removing PWL point (0.0002879,0)
v2: Removing PWL point (0.0002883,3.3)
v2: Removing PWL point (0.0002895,0)
v2: Removing PWL point (0.00029,3.3)
v2: Removing PWL point (0.0002911,0)
v2: Removing PWL point (0.0002917,3.3)
v2: Removing PWL point (0.0002927,0)
v2: Removing PWL point (0.0002934,3.3)
v2: Removing PWL point (0.0002943,0)
v2: Removing PWL point (0.0002951,3.3)
v2: Removing PWL point (0.0002959,0)
v2: Removing PWL point (0.0002968,3.3)
v2: Removing PWL point (0.0002975,0)
v2: Removing PWL point (0.0002985,3.3)
v2: Removing PWL point (0.0002991,0)
v2: Removing PWL point (0.0003002,3.3)
v2: Removing PWL point (0.0003007,0)
v2: Removing PWL point (0.0003019,3.3)
v2: Removing PWL point (0.0003023,0)
v2: Removing PWL point (0.0003036,3.3)
v2: Removing PWL point (0.0003039,0)
v2: Removing PWL point (0.0003055,0)
v2: Removing PWL point (0.0003071,0)
v2: Removing PWL point (0.000309,0)
v2: Removing PWL point (0.0003106,3.3)
v2: Removing PWL point (0.0003109,0)
v2: Removing PWL point (0.0003123,3.3)
v2: Removing PWL point (0.0003127,0)
v2: Removing PWL point (0.000314,3.3)
v2: Removing PWL point (0.0003145,0)
v2: Removing PWL point (0.0003157,3.3)
v2: Removing PWL point (0.0003163,0)
v2: Removing PWL point (0.0003174,3.3)
v2: Removing PWL point (0.0003181,0)
v2: Removing PWL point (0.0003191,3.3)
v2: Removing PWL point (0.0003199,0)
v2: Removing PWL point (0.0003208,3.3)
v2: Removing PWL point (0.0003217,0)
v2: Removing PWL point (0.0003225,3.3)
v2: Removing PWL point (0.0003235,0)
v2: Removing PWL point (0.0003242,3.3)
v2: Removing PWL point (0.0003253,0)
v2: Removing PWL point (0.0003259,3.3)
v2: Removing PWL point (0.0003271,0)
v2: Removing PWL point (0.0003276,3.3)
v2: Removing PWL point (0.0003289,0)
v2: Removing PWL point (0.0003293,3.3)
v2: Removing PWL point (0.0003307,0)
v2: Removing PWL point (0.000331,3.3)
v2: Removing PWL point (0.0003327,3.3)
v2: Removing PWL point (0.0003344,3.3)
v2: Removing PWL point (0.0003361,3.3)
v2: Removing PWL point (0.0003375,0)
v2: Removing PWL point (0.0003378,3.3)
v2: Removing PWL point (0.0003391,0)
v2: Removing PWL point (0.0003395,3.3)
v2: Removing PWL point (0.0003407,0)
v2: Removing PWL point (0.0003412,3.3)
v2: Removing PWL point (0.0003423,0)
v2: Removing PWL point (0.0003429,3.3)
v2: Removing PWL point (0.0003439,0)
v2: Removing PWL point (0.0003446,3.3)
v2: Removing PWL point (0.0003455,0)
v2: Removing PWL point (0.0003463,3.3)
v2: Removing PWL point (0.0003471,0)
v2: Removing PWL point (0.000348,3.3)
v2: Removing PWL point (0.0003487,0)
v2: Removing PWL point (0.0003497,3.3)
v2: Removing PWL point (0.0003503,0)
v2: Removing PWL point (0.0003514,3.3)
v2: Removing PWL point (0.0003519,0)
v2: Removing PWL point (0.0003531,3.3)
v2: Removing PWL point (0.0003535,0)
v2: Removing PWL point (0.0003548,3.3)
v2: Removing PWL point (0.0003551,0)
v2: Removing PWL point (0.0003567,0)
v2: Removing PWL point (0.0003583,0)
v2: Removing PWL point (0.0003602,0)
v2: Removing PWL point (0.0003618,3.3)
v2: Removing PWL point (0.0003621,0)
v2: Removing PWL point (0.0003635,3.3)
v2: Removing PWL point (0.0003639,0)
v2: Removing PWL point (0.0003652,3.3)
v2: Removing PWL point (0.0003657,0)
v2: Removing PWL point (0.0003669,3.3)
v2: Removing PWL point (0.0003675,0)
v2: Removing PWL point (0.0003686,3.3)
v2: Removing PWL point (0.0003693,0)
v2: Removing PWL point (0.0003703,3.3)
v2: Removing PWL point (0.0003711,0)
v2: Removing PWL point (0.000372,3.3)
v2: Removing PWL point (0.0003729,0)
v2: Removing PWL point (0.0003737,3.3)
v2: Removing PWL point (0.0003747,0)
v2: Removing PWL point (0.0003754,3.3)
v2: Removing PWL point (0.0003765,0)
v2: Removing PWL point (0.0003771,3.3)
v2: Removing PWL point (0.0003783,0)
v2: Removing PWL point (0.0003788,3.3)
v2: Removing PWL point (0.0003801,0)
v2: Removing PWL point (0.0003805,3.3)
v2: Removing PWL point (0.0003819,0)
v2: Removing PWL point (0.0003822,3.3)
v2: Removing PWL point (0.0003839,3.3)
v2: Removing PWL point (0.0003856,3.3)
v2: Removing PWL point (0.0003873,3.3)
v2: Removing PWL point (0.0003887,0)
v2: Removing PWL point (0.000389,3.3)
v2: Removing PWL point (0.0003903,0)
v2: Removing PWL point (0.0003907,3.3)
v2: Removing PWL point (0.0003919,0)
v2: Removing PWL point (0.0003924,3.3)
v2: Removing PWL point (0.0003935,0)
v2: Removing PWL point (0.0003941,3.3)
v2: Removing PWL point (0.0003951,0)
v2: Removing PWL point (0.0003958,3.3)
v2: Removing PWL point (0.0003967,0)
v2: Removing PWL point (0.0003975,3.3)
v2: Removing PWL point (0.0003983,0)
v2: Removing PWL point (0.0003992,3.3)
v2: Removing PWL point (0.0003999,0)
v2: Removing PWL point (0.0004009,3.3)
v2: Removing PWL point (0.0004015,0)
v2: Removing PWL point (0.0004026,3.3)
v2: Removing PWL point (0.0004031,0)
v2: Removing PWL point (0.0004043,3.3)
v2: Removing PWL point (0.0004047,0)
v2: Removing PWL point (0.000406,3.3)
v2: Removing PWL point (0.0004063,0)
v2: Removing PWL point (0.0004079,0)
v2: Removing PWL point (0.0004095,0)
v2: Removing PWL point (0.0004114,0)
v2: Removing PWL point (0.000413,3.3)
v2: Removing PWL point (0.0004133,0)
v2: Removing PWL point (0.0004147,3.3)
v2: Removing PWL point (0.0004151,0)
v2: Removing PWL point (0.0004164,3.3)
v2: Removing PWL point (0.0004169,0)
v2: Removing PWL point (0.0004181,3.3)
v2: Removing PWL point (0.0004187,0)
v2: Removing PWL point (0.0004198,3.3)
v2: Removing PWL point (0.0004205,0)
v2: Removing PWL point (0.0004215,3.3)
v2: Removing PWL point (0.0004223,0)
v2: Removing PWL point (0.0004232,3.3)
v2: Removing PWL point (0.0004241,0)
v2: Removing PWL point (0.0004249,3.3)
v2: Removing PWL point (0.0004259,0)
v2: Removing PWL point (0.0004266,3.3)
v2: Removing PWL point (0.0004277,0)
v2: Removing PWL point (0.0004283,3.3)
v2: Removing PWL point (0.0004295,0)
v2: Removing PWL point (0.00043,3.3)
v2: Removing PWL point (0.0004313,0)
v2: Removing PWL point (0.0004317,3.3)
v2: Removing PWL point (0.0004331,0)
v2: Removing PWL point (0.0004334,3.3)
v2: Removing PWL point (0.0004351,3.3)
v2: Removing PWL point (0.0004368,3.3)
v2: Removing PWL point (0.0004385,3.3)
v2: Removing PWL point (0.0004399,0)
v2: Removing PWL point (0.0004402,3.3)
v2: Removing PWL point (0.0004415,0)
v2: Removing PWL point (0.0004419,3.3)
v2: Removing PWL point (0.0004431,0)
v2: Removing PWL point (0.0004436,3.3)
v2: Removing PWL point (0.0004447,0)
v2: Removing PWL point (0.0004453,3.3)
v2: Removing PWL point (0.0004463,0)
v2: Removing PWL point (0.000447,3.3)
v2: Removing PWL point (0.0004479,0)
v2: Removing PWL point (0.0004487,3.3)
v2: Removing PWL point (0.0004495,0)
v2: Removing PWL point (0.0004504,3.3)
v2: Removing PWL point (0.0004511,0)
v2: Removing PWL point (0.0004521,3.3)
v2: Removing PWL point (0.0004527,0)
v2: Removing PWL point (0.0004538,3.3)
v2: Removing PWL point (0.0004543,0)
v2: Removing PWL point (0.0004555,3.3)
v2: Removing PWL point (0.0004559,0)
v2: Removing PWL point (0.0004572,3.3)
v2: Removing PWL point (0.0004575,0)
v2: Removing PWL point (0.0004591,0)
v2: Removing PWL point (0.0004607,0)
v2: Removing PWL point (0.0004626,0)
v2: Removing PWL point (0.0004642,3.3)
v2: Removing PWL point (0.0004645,0)
v2: Removing PWL point (0.0004659,3.3)
v2: Removing PWL point (0.0004663,0)
v2: Removing PWL point (0.0004676,3.3)
v2: Removing PWL point (0.0004681,0)
v2: Removing PWL point (0.0004693,3.3)
v2: Removing PWL point (0.0004699,0)
v2: Removing PWL point (0.000471,3.3)
v2: Removing PWL point (0.0004717,0)
v2: Removing PWL point (0.0004727,3.3)
v2: Removing PWL point (0.0004735,0)
v2: Removing PWL point (0.0004744,3.3)
v2: Removing PWL point (0.0004753,0)
v2: Removing PWL point (0.0004761,3.3)
v2: Removing PWL point (0.0004771,0)
v2: Removing PWL point (0.0004778,3.3)
v2: Removing PWL point (0.0004789,0)
v2: Removing PWL point (0.0004795,3.3)
v2: Removing PWL point (0.0004807,0)
v2: Removing PWL point (0.0004812,3.3)
v2: Removing PWL point (0.0004825,0)
v2: Removing PWL point (0.0004829,3.3)
v2: Removing PWL point (0.0004843,0)
v2: Removing PWL point (0.0004846,3.3)
v2: Removing PWL point (0.0004863,3.3)
v2: Removing PWL point (0.000488,3.3)
v2: Removing PWL point (0.0004897,3.3)
v2: Removing PWL point (0.0004911,0)
v2: Removing PWL point (0.0004914,3.3)
v2: Removing PWL point (0.0004927,0)
v2: Removing PWL point (0.0004931,3.3)
v2: Removing PWL point (0.0004943,0)
v2: Removing PWL point (0.0004948,3.3)
v2: Removing PWL point (0.0004959,0)
v2: Removing PWL point (0.0004965,3.3)
v2: Removing PWL point (0.0004975,0)
v2: Removing PWL point (0.0004982,3.3)
v2: Removing PWL point (0.0004991,0)
v2: Removing PWL point (0.0004999,3.3)
v2: Removing PWL point (0.0005007,0)
v2: Removing PWL point (0.0005016,3.3)
v2: Removing PWL point (0.0005023,0)
v2: Removing PWL point (0.0005033,3.3)
v2: Removing PWL point (0.0005039,0)
v2: Removing PWL point (0.000505,3.3)
v2: Removing PWL point (0.0005055,0)
v2: Removing PWL point (0.0005067,3.3)
v2: Removing PWL point (0.0005071,0)
v2: Removing PWL point (0.0005084,3.3)
v2: Removing PWL point (0.0005087,0)
v2: Removing PWL point (0.0005103,0)
v2: Removing PWL point (0.0005119,0)
v2: Removing PWL point (0.0005138,0)
v2: Removing PWL point (0.0005154,3.3)
v2: Removing PWL point (0.0005157,0)
v2: Removing PWL point (0.0005171,3.3)
v2: Removing PWL point (0.0005175,0)
v2: Removing PWL point (0.0005188,3.3)
v2: Removing PWL point (0.0005193,0)
v2: Removing PWL point (0.0005205,3.3)
v2: Removing PWL point (0.0005211,0)
v2: Removing PWL point (0.0005222,3.3)
v2: Removing PWL point (0.0005229,0)
v2: Removing PWL point (0.0005239,3.3)
v2: Removing PWL point (0.0005247,0)
v2: Removing PWL point (0.0005256,3.3)
v2: Removing PWL point (0.0005265,0)
v2: Removing PWL point (0.0005273,3.3)
v2: Removing PWL point (0.0005283,0)
v2: Removing PWL point (0.000529,3.3)
v2: Removing PWL point (0.0005301,0)
v2: Removing PWL point (0.0005307,3.3)
v2: Removing PWL point (0.0005319,0)
v2: Removing PWL point (0.0005324,3.3)
v2: Removing PWL point (0.0005337,0)
v2: Removing PWL point (0.0005341,3.3)
v2: Removing PWL point (0.0005355,0)
v2: Removing PWL point (0.0005358,3.3)
v2: Removing PWL point (0.0005375,3.3)
v2: Removing PWL point (0.0005392,3.3)
v2: Removing PWL point (0.0005409,3.3)
v2: Removing PWL point (0.0005423,0)
v2: Removing PWL point (0.0005426,3.3)
v2: Removing PWL point (0.0005439,0)
v2: Removing PWL point (0.0005443,3.3)
v2: Removing PWL point (0.0005455,0)
v2: Removing PWL point (0.000546,3.3)
v2: Removing PWL point (0.0005471,0)
v2: Removing PWL point (0.0005477,3.3)
v2: Removing PWL point (0.0005487,0)
v2: Removing PWL point (0.0005494,3.3)
v2: Removing PWL point (0.0005503,0)
v2: Removing PWL point (0.0005511,3.3)
v2: Removing PWL point (0.0005519,0)
v2: Removing PWL point (0.0005528,3.3)
v2: Removing PWL point (0.0005535,0)
v2: Removing PWL point (0.0005545,3.3)
v2: Removing PWL point (0.0005551,0)
v2: Removing PWL point (0.0005562,3.3)
v2: Removing PWL point (0.0005567,0)
v2: Removing PWL point (0.0005579,3.3)
v2: Removing PWL point (0.0005583,0)
v2: Removing PWL point (0.0005596,3.3)
v2: Removing PWL point (0.0005599,0)
v2: Removing PWL point (0.0005615,0)
v2: Removing PWL point (0.0005631,0)
v2: Removing PWL point (0.000565,0)
v2: Removing PWL point (0.0005666,3.3)
v2: Removing PWL point (0.0005669,0)
v2: Removing PWL point (0.0005683,3.3)
v2: Removing PWL point (0.0005687,0)
v2: Removing PWL point (0.00057,3.3)
v2: Removing PWL point (0.0005705,0)
v2: Removing PWL point (0.0005717,3.3)
v2: Removing PWL point (0.0005723,0)
v2: Removing PWL point (0.0005734,3.3)
v2: Removing PWL point (0.0005741,0)
v2: Removing PWL point (0.0005751,3.3)
v2: Removing PWL point (0.0005759,0)
v2: Removing PWL point (0.0005768,3.3)
v2: Removing PWL point (0.0005777,0)
v2: Removing PWL point (0.0005785,3.3)
v2: Removing PWL point (0.0005795,0)
v2: Removing PWL point (0.0005802,3.3)
v2: Removing PWL point (0.0005813,0)
v2: Removing PWL point (0.0005819,3.3)
v2: Removing PWL point (0.0005831,0)
v2: Removing PWL point (0.0005836,3.3)
v2: Removing PWL point (0.0005849,0)
v2: Removing PWL point (0.0005853,3.3)
v2: Removing PWL point (0.0005867,0)
v2: Removing PWL point (0.000587,3.3)
v2: Removing PWL point (0.0005887,3.3)
v2: Removing PWL point (0.0005904,3.3)
v2: Removing PWL point (0.0005921,3.3)
v2: Removing PWL point (0.0005935,0)
v2: Removing PWL point (0.0005938,3.3)
v2: Removing PWL point (0.0005951,0)
v2: Removing PWL point (0.0005955,3.3)
v2: Removing PWL point (0.0005967,0)
v2: Removing PWL point (0.0005972,3.3)
v2: Removing PWL point (0.0005983,0)
v2: Removing PWL point (0.0005989,3.3)
v2: Removing PWL point (0.0005999,0)
v2: Removing PWL point (0.0006006,3.3)
v2: Removing PWL point (0.0006015,0)
v2: Removing PWL point (0.0006023,3.3)
v2: Removing PWL point (0.0006031,0)
v2: Removing PWL point (0.000604,3.3)
v2: Removing PWL point (0.0006047,0)
v2: Removing PWL point (0.0006057,3.3)
v2: Removing PWL point (0.0006063,0)
v2: Removing PWL point (0.0006074,3.3)
v2: Removing PWL point (0.0006079,0)
v2: Removing PWL point (0.0006091,3.3)
v2: Removing PWL point (0.0006095,0)
v2: Removing PWL point (0.0006108,3.3)
v2: Removing PWL point (0.0006111,0)
v2: Removing PWL point (0.0006127,0)
v2: Removing PWL point (0.0006143,0)
v2: Removing PWL point (0.0006162,0)
v2: Removing PWL point (0.0006178,3.3)
v2: Removing PWL point (0.0006181,0)
v2: Removing PWL point (0.0006195,3.3)
v2: Removing PWL point (0.0006199,0)
v2: Removing PWL point (0.0006212,3.3)
v2: Removing PWL point (0.0006217,0)
v2: Removing PWL point (0.0006229,3.3)
v2: Removing PWL point (0.0006235,0)
v2: Removing PWL point (0.0006246,3.3)
v2: Removing PWL point (0.0006253,0)
v2: Removing PWL point (0.0006263,3.3)
v2: Removing PWL point (0.0006271,0)
v2: Removing PWL point (0.000628,3.3)
v2: Removing PWL point (0.0006289,0)
v2: Removing PWL point (0.0006297,3.3)
v2: Removing PWL point (0.0006307,0)
v2: Removing PWL point (0.0006314,3.3)
v2: Removing PWL point (0.0006325,0)
v2: Removing PWL point (0.0006331,3.3)
v2: Removing PWL point (0.0006343,0)
v2: Removing PWL point (0.0006348,3.3)
v2: Removing PWL point (0.0006361,0)
v2: Removing PWL point (0.0006365,3.3)
v2: Removing PWL point (0.0006379,0)
v2: Removing PWL point (0.0006382,3.3)
v2: Removing PWL point (0.0006399,3.3)
v2: Removing PWL point (0.0006416,3.3)
v2: Removing PWL point (0.0006433,3.3)
v2: Removing PWL point (0.0006447,0)
v2: Removing PWL point (0.000645,3.3)
v2: Removing PWL point (0.0006463,0)
v2: Removing PWL point (0.0006467,3.3)
v2: Removing PWL point (0.0006479,0)
v2: Removing PWL point (0.0006484,3.3)
v2: Removing PWL point (0.0006495,0)
v2: Removing PWL point (0.0006501,3.3)
v2: Removing PWL point (0.0006511,0)
v2: Removing PWL point (0.0006518,3.3)
v2: Removing PWL point (0.0006527,0)
v2: Removing PWL point (0.0006535,3.3)
v2: Removing PWL point (0.0006543,0)
v2: Removing PWL point (0.0006552,3.3)
v2: Removing PWL point (0.0006559,0)
v2: Removing PWL point (0.0006569,3.3)
v2: Removing PWL point (0.0006575,0)
v2: Removing PWL point (0.0006586,3.3)
v2: Removing PWL point (0.0006591,0)
v2: Removing PWL point (0.0006603,3.3)
v2: Removing PWL point (0.0006607,0)
v2: Removing PWL point (0.000662,3.3)
v2: Removing PWL point (0.0006623,0)
v2: Removing PWL point (0.0006639,0)
v2: Removing PWL point (0.0006655,0)
v2: Removing PWL point (0.0006674,0)
v2: Removing PWL point (0.000669,3.3)
v2: Removing PWL point (0.0006693,0)
v2: Removing PWL point (0.0006707,3.3)
v2: Removing PWL point (0.0006711,0)
v2: Removing PWL point (0.0006724,3.3)
v2: Removing PWL point (0.0006729,0)
v2: Removing PWL point (0.0006741,3.3)
v2: Removing PWL point (0.0006747,0)
v2: Removing PWL point (0.0006758,3.3)
v2: Removing PWL point (0.0006765,0)
v2: Removing PWL point (0.0006775,3.3)
v2: Removing PWL point (0.0006783,0)
v2: Removing PWL point (0.0006792,3.3)
v2: Removing PWL point (0.0006801,0)
v2: Removing PWL point (0.0006809,3.3)
v2: Removing PWL point (0.0006819,0)
v2: Removing PWL point (0.0006826,3.3)
v2: Removing PWL point (0.0006837,0)
v2: Removing PWL point (0.0006843,3.3)
v2: Removing PWL point (0.0006855,0)
v2: Removing PWL point (0.000686,3.3)
v2: Removing PWL point (0.0006873,0)
v2: Removing PWL point (0.0006877,3.3)
v2: Removing PWL point (0.0006891,0)
v2: Removing PWL point (0.0006894,3.3)
v2: Removing PWL point (0.0006911,3.3)
v2: Removing PWL point (0.0006928,3.3)
v2: Removing PWL point (0.0006945,3.3)
v2: Removing PWL point (0.0006959,0)
v2: Removing PWL point (0.0006962,3.3)
v2: Removing PWL point (0.0006975,0)
v2: Removing PWL point (0.0006979,3.3)
v2: Removing PWL point (0.0006991,0)
v2: Removing PWL point (0.0006996,3.3)
v2: Removing PWL point (0.0007007,0)
v2: Removing PWL point (0.0007013,3.3)
v2: Removing PWL point (0.0007023,0)
v2: Removing PWL point (0.000703,3.3)
v2: Removing PWL point (0.0007039,0)
v2: Removing PWL point (0.0007047,3.3)
v2: Removing PWL point (0.0007055,0)
v2: Removing PWL point (0.0007064,3.3)
v2: Removing PWL point (0.0007071,0)
v2: Removing PWL point (0.0007081,3.3)
v2: Removing PWL point (0.0007087,0)
v2: Removing PWL point (0.0007098,3.3)
v2: Removing PWL point (0.0007103,0)
v2: Removing PWL point (0.0007115,3.3)
v2: Removing PWL point (0.0007119,0)
v2: Removing PWL point (0.0007132,3.3)
v2: Removing PWL point (0.0007135,0)
v2: Removing PWL point (0.0007151,0)
v2: Removing PWL point (0.0007167,0)
v2: Removing PWL point (0.0007186,0)
v2: Removing PWL point (0.0007202,3.3)
v2: Removing PWL point (0.0007205,0)
v2: Removing PWL point (0.0007219,3.3)
v2: Removing PWL point (0.0007223,0)
v2: Removing PWL point (0.0007236,3.3)
v2: Removing PWL point (0.0007241,0)
v2: Removing PWL point (0.0007253,3.3)
v2: Removing PWL point (0.0007259,0)
v2: Removing PWL point (0.000727,3.3)
v2: Removing PWL point (0.0007277,0)
v2: Removing PWL point (0.0007287,3.3)
v2: Removing PWL point (0.0007295,0)
v2: Removing PWL point (0.0007304,3.3)
v2: Removing PWL point (0.0007313,0)
v2: Removing PWL point (0.0007321,3.3)
v2: Removing PWL point (0.0007331,0)
v2: Removing PWL point (0.0007338,3.3)
v2: Removing PWL point (0.0007349,0)
v2: Removing PWL point (0.0007355,3.3)
v2: Removing PWL point (0.0007367,0)
v2: Removing PWL point (0.0007372,3.3)
v2: Removing PWL point (0.0007385,0)
v2: Removing PWL point (0.0007389,3.3)
v2: Removing PWL point (0.0007403,0)
v2: Removing PWL point (0.0007406,3.3)
v2: Removing PWL point (0.0007423,3.3)
v2: Removing PWL point (0.000744,3.3)
v2: Removing PWL point (0.0007457,3.3)
v2: Removing PWL point (0.0007471,0)
v2: Removing PWL point (0.0007474,3.3)
v2: Removing PWL point (0.0007487,0)
v2: Removing PWL point (0.0007491,3.3)
v2: Removing PWL point (0.0007503,0)
v2: Removing PWL point (0.0007508,3.3)
v2: Removing PWL point (0.0007519,0)
v2: Removing PWL point (0.0007525,3.3)
v2: Removing PWL point (0.0007535,0)
v2: Removing PWL point (0.0007542,3.3)
v2: Removing PWL point (0.0007551,0)
v2: Removing PWL point (0.0007559,3.3)
v2: Removing PWL point (0.0007567,0)
v2: Removing PWL point (0.0007576,3.3)
v2: Removing PWL point (0.0007583,0)
v2: Removing PWL point (0.0007593,3.3)
v2: Removing PWL point (0.0007599,0)
v2: Removing PWL point (0.000761,3.3)
v2: Removing PWL point (0.0007615,0)
v2: Removing PWL point (0.0007627,3.3)
v2: Removing PWL point (0.0007631,0)
v2: Removing PWL point (0.0007644,3.3)
v2: Removing PWL point (0.0007647,0)
v2: Removing PWL point (0.0007663,0)
Direct Newton iteration failed to find .op point.  (Use ".option noopiter" to skip.)
Starting Gmin stepping
Gmin = 10
Gmin = 1.07374
Gmin = 0.115292
Gmin = 0.0123794
Gmin = 0.00132923
Gmin = 0.000142725
Gmin = 1.5325e-05
Gmin = 1.6455e-06
Gmin = 1.76685e-07
Gmin = 1.89714e-08
vernier = 0.5
Gmin = 3.18287e-09
vernier = 0.25
vernier = 0.333333
Gmin = 1.70658e-09
vernier = 0.444444
vernier = 0.592592
Gmin = 5.8622e-10
vernier = 0.790123
Gmin = 1.1438e-10
vernier = 1
Gmin = 1.22814e-11
Gmin = 1.31871e-12
Gmin = 1.41595e-13
Gmin = 0
Gmin stepping succeeded in finding the operating point.


Date: Tue May  2 01:13:12 2023
Total elapsed time: 0.709 seconds.

tnom = 27
temp = 27
method = modified trap
totiter = 21592
traniter = 20902
tranpoints = 10317
accept = 9593
rejected = 724
matrix size = 37
fillins = 51
solver = Normal
Avg thread counts: 1.0/1.1/1.1/1.0
Matrix Compiler1: 3.68 KB object code size  2.0/1.0/[0.7]
Matrix Compiler2: 4.02 KB object code size  0.9/1.4/[0.5]

